                                   MODFLOW 6
                U.S. GEOLOGICAL SURVEY MODULAR HYDROLOGIC MODEL
                          GROUNDWATER FLOW MODEL (GWF)
                            VERSION 6.4.2 06/28/2023

   MODFLOW 6 compiled Jul 05 2023 20:29:14 with Intel(R) Fortran Intel(R) 64
   Compiler Classic for applications running on Intel(R) 64, Version 2021.7.0
                             Build 20220726_000000

This software has been approved for release by the U.S. Geological 
Survey (USGS). Although the software has been subjected to rigorous 
review, the USGS reserves the right to update the software as needed 
pursuant to further analysis and review. No warranty, expressed or 
implied, is made by the USGS or the U.S. Government as to the 
functionality of the software and related material nor shall the 
fact of release constitute any such warranty. Furthermore, the 
software is released on condition that neither the USGS nor the U.S. 
Government shall be held liable for any damages resulting from its 
authorized or unauthorized use. Also refer to the USGS Water 
Resources Software User Rights Notice for complete use, copyright, 
and distribution information.


As a work of the United States Government, this USGS product is 
in the public domain within the United States. You can copy, 
modify, distribute, and perform the work, even for commercial 
purposes, all without asking permission. Additionally, USGS 
waives copyright and related rights in the work worldwide 
through CC0 1.0 Universal Public Domain Dedication 
(https://creativecommons.org/publicdomain/zero/1.0/).

The following GNU Lesser General Public License (LGPL) libraries
are used in this USGS product:

    SPARSKIT version 2.0
      ilut, luson, and qsplit 
      (https://www-users.cse.umn.edu/~saad/software/SPARSKIT/)

    RCM - Reverse Cuthill McKee Ordering
      (https://people.math.sc.edu/Burkardt/f_src/rcm/rcm.html)

    BLAS - Basic Linear Algebra Subprograms Level 1
      (https://people.math.sc.edu/Burkardt/f_src/blas1_d/blas1_d.html)

    SPARSEKIT - Sparse Matrix Utility Package
      amux, dperm, dvperm, rperm, and cperm
      (https://people.sc.fsu.edu/~jburkardt/f77_src/sparsekit/sparsekit.html)

The following BSD-3 License libraries are used in this USGS product:

    Modern Fortran DAG Library
      Copyright (c) 2018, Jacob Williams
      All rights reserved.
      (https://github.com/jacobwilliams/daglib)

MODFLOW 6 compiler options: -Imac/obj_mf6 -O2 -no-heap-arrays -fpe0
-traceback -fpp -module mac/mod_mf6/ -c -o mac/obj_mf6/compilerversion.o

System command used to initiate simulation:
/Users/mnfienen/.local/share/flopy/bin/mf6

MODFLOW was compiled using uniform precision.

Real Variables
  KIND: 8
  TINY (smallest non-zero value):    2.225074-308
  HUGE (largest value):    1.797693+308
  PRECISION: 15
  SIZE IN BITS: 64

Integer Variables
  KIND: 4
  HUGE (largest value): 2147483647
  SIZE IN BITS: 32

Long Integer Variables
  KIND: 8
  HUGE (largest value): 9223372036854775807
  SIZE IN BITS: 64

Logical Variables
  KIND: 4
  SIZE IN BITS: 32
 
 NAMEFILE OPTIONS:
 END NAMEFILE OPTIONS:

 DIS -- STRUCTURED GRID DISCRETIZATION PACKAGE, VERSION 2 : 3/27/2014 - INPUT READ FROM MEMPATH: __INPUT__/PS2/DIS                                 


 NPF -- NODE PROPERTY FLOW PACKAGE, VERSION 1, 3/30/2015 INPUT READ FROM MEMPATH: __INPUT__/PS2/NPF                                 

 Setting Discretization Options
    Model length unit [0=UND, 1=FEET, 2=METERS, 3=CENTIMETERS] set as 1
    XORIGIN = .000000000000000
    YORIGIN = .000000000000000
    ANGROT = .000000000000000
 End Setting Discretization Options

 Setting Discretization Dimensions
    NLAY = 3
    NROW = 21
    NCOL = 20
 End Setting Discretization Dimensions

 Setting Discretization Griddata
    DELR set from input file
    DELC set from input file
    TOP set from input file
    BOTM set from input file
    IDOMAIN set from input file
 End Setting Discretization Griddata

 Setting NPF Options
    Cell-by-cell flow information will be saved to binary file whenever ICBCFL is not zero.
 End Setting NPF Options

 Setting NPF Griddata
    ICELLTYPE set from input file
    K set from input file
    K33 set from input file
    K22 not provided.  Setting K22 = K.
 End Setting NPF Griddata


 DRN   -- DRN PACKAGE, VERSION 8, 2/22/2014 INPUT READ FROM UNIT 1007
 # File generated by Flopy version 3.4.2 on 09/12/2023 at 13:54:28.

 PROCESSING DRN OPTIONS
    DRN FLOWS WILL BE PRINTED TO LISTING FILE.
 END OF DRN OPTIONS

 PROCESSING DRN DIMENSIONS
    MAXBOUND =      11
 END OF DRN DIMENSIONS

 RIV   -- RIV PACKAGE, VERSION 8, 2/22/2014 INPUT READ FROM UNIT 1008
 # File generated by Flopy version 3.4.2 on 09/12/2023 at 13:54:28.

 PROCESSING RIV OPTIONS
    FLOWS WILL BE SAVED TO BUDGET FILE SPECIFIED IN OUTPUT CONTROL
 END OF RIV OPTIONS

 PROCESSING RIV DIMENSIONS
    MAXBOUND =      21
 END OF RIV DIMENSIONS

 RCH   -- RCH PACKAGE, VERSION 8, 2/22/2014 INPUT READ FROM UNIT 1009
 # File generated by Flopy version 3.4.2 on 09/12/2023 at 13:54:28.

 PROCESSING RCH OPTIONS
    RECHARGE INPUT WILL BE READ AS ARRAY(S).
 END OF RCHA OPTIONS

 IC -- INITIAL CONDITIONS PACKAGE, VERSION 8, 3/28/2015 INPUT READ FROM UNIT 1005
 # File generated by Flopy version 3.4.2 on 09/12/2023 at 13:54:28.
 PROCESSING GRIDDATA

     INITIAL HEAD =   320.0000     FOR LAYER 1

     INITIAL HEAD =   320.0000     FOR LAYER 2

     INITIAL HEAD =   320.0000     FOR LAYER 3
 END PROCESSING GRIDDATA
    BINARY GRID INFORMATION WILL BE WRITTEN TO:
      UNIT NUMBER: 1013
      FILE NAME: ps2.dis.grb

 OPENED ps2.dis.grb
 FILE TYPE:DATA(BINARY)   UNIT 1013   STATUS:REPLACE             
 FORMAT:UNFORMATTED            ACCESS:STREAM              
 ACTION:READWRITE           

      THE LAST TIME STEP WILL BE PRINTED
      THE LAST TIME STEP WILL BE PRINTED
 # File generated by Flopy version 3.4.2 on 09/12/2023 at 13:54:28.

 PROCESSING OC OPTIONS

    HEAD INFORMATION WILL BE WRITTEN TO:
      UNIT NUMBER: 1014
      FILE NAME: ps2.hed

 OPENED ps2.hed
 FILE TYPE:DATA(BINARY)   UNIT 1014   STATUS:REPLACE             
 FORMAT:UNFORMATTED            ACCESS:STREAM              
 ACTION:READWRITE           

 END OF OC OPTIONS

start timestep kper="1" kstp="1" mode="normal"


 BEGIN READING OUTPUT CONTROL FOR STRESS PERIOD 1
      ALL TIME STEPS WILL BE SAVED
      ALL TIME STEPS WILL BE PRINTED
      ALL TIME STEPS WILL BE PRINTED

 END READING OUTPUT CONTROL FOR STRESS PERIOD 1

                 RECHARGE =  0.5000000E-02

 DRN PACKAGE (DRN_0) FLOW RATES   PERIOD      1   STEP        1
 -----------------------------------------------
   NUMBER   CELLID                    RATE      
 -----------------------------------------------
     1      (1,15,10)            -68577.656     
     2      (1,15,11)            -35533.094     
     3      (1,15,12)            -28839.046     
     4      (1,15,13)            -25083.005     
     5      (1,15,14)            -22088.758     
     6      (1,15,15)            -19179.520     
     7      (1,15,16)            -15883.552     
     8      (1,15,17)            -11505.149     
     9      (1,15,18)            -2028.4658     
     10     (1,15,19)             0.0000000     
     11     (1,15,20)             0.0000000     
 -----------------------------------------------



1
  HEAD IN LAYER   1 AT END OF TIME STEP   1 IN STRESS PERIOD    1
  ---------------------------------------------------------------------------

            1        2        3        4        5        6        7        8        9       10       11       12       13       14       15       16       17       18       19       20
 .......................................................................................................................................................................................
   1   338.076  338.018  337.903  337.728  337.494  337.197  336.835  336.404  335.898  335.310  334.627  333.838  332.924  331.863  330.626  329.178  327.473  325.455  323.053  320.171
   2   338.052  337.994  337.877  337.701  337.464  337.165  336.801  336.367  335.859  335.269  334.586  333.797  332.885  331.826  330.593  329.150  327.451  325.440  323.044  320.171
   3   338.005  337.945  337.826  337.646  337.405  337.100  336.730  336.292  335.779  335.186  334.502  333.713  332.804  331.751  330.526  329.092  327.405  325.407  323.027  320.170
   4   337.934  337.872  337.749  337.563  337.314  337.002  336.623  336.176  335.656  335.057  334.370  333.583  332.678  331.633  330.420  329.002  327.333  325.357  323.000  320.169
   5   337.840  337.776  337.647  337.452  337.193  336.868  336.476  336.015  335.484  334.876  334.185  333.399  332.500  331.467  330.271  328.875  327.233  325.286  322.962  320.167
   6   337.726  337.657  337.520  337.314  337.040  336.697  336.286  335.806  335.257  334.636  333.938  333.151  332.261  331.244  330.071  328.705  327.098  325.192  322.912  320.164
   7   337.592  337.519  337.371  337.150  336.855  336.487  336.049  335.541  334.967  334.326  333.616  332.828  331.948  330.952  329.810  328.483  326.923  325.069  322.847  320.161
   8   337.442  337.362  337.201  336.959  336.638  336.237  335.761  335.213  334.600  333.929  333.201  332.410  331.542  330.574  329.474  328.199  326.699  324.913  322.765  320.157
   9   337.280  337.192  337.014  336.747  336.391  335.946  335.417  334.812  334.143  333.425  332.668  331.871  331.021  330.090  329.044  327.837  326.417  324.717  322.661  320.152
  10   337.110  337.012  336.816  336.518  336.118  335.616  335.015  334.327  333.573  332.782  331.981  331.176  330.350  329.471  328.497  327.381  326.062  324.474  322.534  320.146
  11   336.939  336.831  336.613  336.280  335.828  335.254  334.557  333.749  332.863  331.955  331.088  330.274  329.485  328.679  327.805  326.808  325.622  324.175  322.379  320.138
  12   336.775  336.656  336.415  336.045  335.536  334.875  334.054  333.076  331.980  330.869  329.906  329.093  328.369  327.669  326.930  326.091  325.081  323.815  322.197  320.129
  13   336.624  336.496  336.234  335.828  335.261  334.509  333.540  332.328  330.887  329.384  328.302  327.532  326.927  326.383  325.827  325.197  324.419  323.396  321.993  320.119
  14   336.493  336.358  336.081  335.648  335.034  334.201  333.086  331.591  329.596  327.168  326.054  325.467  325.078  324.757  324.439  324.078  323.614  322.936  321.790  320.110
  15   336.388  336.249  335.965  335.518  334.883  334.011  332.815  331.109  328.421  323.186  322.855  322.788  322.751  322.721  322.692  322.659  322.615  322.520  321.655  320.103
  16   336.311  336.172  335.889  335.447  334.822  333.976  332.847  331.339  329.333  326.894  325.780  325.198  324.822  324.521  324.231  323.902  323.476  322.840  321.739  320.107
  17   336.259  336.124  335.849  335.425  334.835  334.056  333.059  331.820  330.357  328.838  327.752  326.993  326.413  325.909  325.406  324.840  324.138  323.199  321.888  320.114
  18   336.228  336.098  335.837  335.437  334.890  334.187  333.322  332.302  331.169  330.035  329.065  328.266  327.579  326.938  326.280  325.540  324.646  323.511  322.035  320.121
  19   336.212  336.088  335.840  335.464  334.958  334.322  333.559  332.688  331.748  330.803  329.924  329.127  328.387  327.661  326.898  326.038  325.015  323.750  322.153  320.127
  20   336.205  336.086  335.849  335.491  335.016  334.426  333.731  332.951  332.117  331.270  330.446  329.659  328.893  328.119  327.292  326.359  325.255  323.909  322.233  320.131
  21   336.203  336.087  335.855  335.508  335.048  334.481  333.820  333.083  332.296  331.492  330.694  329.912  329.137  328.341  327.484  326.516  325.374  323.988  322.274  320.133
1
  HEAD IN LAYER   2 AT END OF TIME STEP   1 IN STRESS PERIOD    1
  ---------------------------------------------------------------------------

            1        2        3        4        5        6        7        8        9       10       11       12       13       14       15       16       17       18       19       20
 .......................................................................................................................................................................................
   1   334.973  334.937  334.865  334.757  334.612  334.431  334.210  333.951  333.649  333.301  332.904  332.452  331.936  331.347  330.671  329.893  328.992  327.943  326.712  325.256
   2   334.958  334.922  334.850  334.741  334.595  334.412  334.190  333.929  333.626  333.278  332.881  332.428  331.913  331.325  330.652  329.876  328.978  327.932  326.705  325.254
   3   334.930  334.893  334.819  334.708  334.560  334.374  334.149  333.885  333.580  333.230  332.832  332.380  331.867  331.282  330.612  329.842  328.950  327.911  326.691  325.248
   4   334.887  334.849  334.773  334.659  334.507  334.316  334.087  333.819  333.509  333.157  332.757  332.306  331.795  331.214  330.551  329.788  328.906  327.878  326.670  325.240
   5   334.831  334.791  334.712  334.594  334.436  334.239  334.002  333.727  333.411  333.054  332.653  332.201  331.694  331.119  330.465  329.714  328.845  327.832  326.641  325.229
   6   334.763  334.721  334.637  334.513  334.347  334.140  333.894  333.608  333.284  332.920  332.514  332.063  331.559  330.993  330.351  329.615  328.765  327.773  326.604  325.216
   7   334.683  334.638  334.549  334.416  334.240  334.020  333.760  333.460  333.122  332.747  332.335  331.884  331.385  330.830  330.204  329.489  328.662  327.697  326.558  325.201
   8   334.593  334.545  334.449  334.306  334.115  333.878  333.598  333.277  332.919  332.529  332.108  331.654  331.163  330.622  330.017  329.328  328.533  327.603  326.501  325.183
   9   334.497  334.445  334.340  334.183  333.974  333.715  333.407  333.056  332.670  332.255  331.819  331.363  330.880  330.358  329.781  329.128  328.373  327.487  326.432  325.164
  10   334.396  334.339  334.224  334.051  333.820  333.531  333.186  332.793  332.362  331.911  331.452  330.992  330.521  330.025  329.486  328.879  328.177  327.347  326.350  325.144
  11   334.295  334.232  334.106  333.915  333.657  333.330  332.936  332.482  331.984  331.473  330.981  330.516  330.064  329.606  329.117  328.571  327.936  327.178  326.255  325.122
  12   334.197  334.129  333.991  333.781  333.493  333.122  332.665  332.124  331.519  330.906  330.365  329.900  329.481  329.077  328.657  328.191  327.646  326.980  326.146  325.101
  13   334.106  334.033  333.885  333.656  333.339  332.921  332.388  331.729  330.951  330.140  329.539  329.096  328.737  328.412  328.084  327.724  327.296  326.752  326.027  325.079
  14   334.027  333.951  333.794  333.551  333.210  332.751  332.144  331.342  330.286  329.012  328.395  328.042  327.792  327.579  327.371  327.147  326.877  326.507  325.911  325.060
  15   333.963  333.884  333.724  333.474  333.121  332.642  331.995  331.087  329.684  327.010  326.782  326.689  326.614  326.547  326.484  326.424  326.364  326.286  325.831  325.045
  16   333.913  333.835  333.675  333.427  333.080  332.614  332.000  331.191  330.129  328.849  328.231  327.882  327.638  327.435  327.242  327.035  326.784  326.436  325.863  325.037
  17   333.878  333.802  333.646  333.407  333.077  332.645  332.098  331.424  330.634  329.815  329.212  328.774  328.429  328.124  327.824  327.497  327.109  326.608  325.931  325.033
  18   333.856  333.782  333.633  333.407  333.099  332.705  332.224  331.661  331.037  330.411  329.867  329.409  329.009  328.636  328.258  327.844  327.358  326.760  325.999  325.031
  19   333.843  333.772  333.630  333.416  333.128  332.769  332.340  331.852  331.325  330.795  330.296  329.839  329.413  328.997  328.566  328.091  327.541  326.876  326.055  325.030
  20   333.836  333.768  333.631  333.426  333.154  332.818  332.424  331.982  331.509  331.028  330.557  330.106  329.667  329.226  328.763  328.251  327.660  326.954  326.093  325.030
  21   333.833  333.766  333.633  333.433  333.169  332.845  332.467  332.047  331.599  331.139  330.681  330.233  329.789  329.337  328.859  328.329  327.719  326.993  326.112  325.030
1
  HEAD IN LAYER   3 AT END OF TIME STEP   1 IN STRESS PERIOD    1
  ---------------------------------------------------------------------------

            1        2        3        4        5        6        7        8        9       10       11       12       13       14       15       16       17       18       19       20
 .......................................................................................................................................................................................
   1   331.882  331.868  331.839  331.798  331.742  331.675  331.596  331.506  331.408  331.301  331.188  331.071  330.952  330.833  330.716  330.606  330.506  330.421  330.356  330.320
   2   331.877  331.863  331.834  331.792  331.737  331.669  331.590  331.500  331.402  331.295  331.182  331.065  330.946  330.827  330.710  330.600  330.500  330.415  330.351  330.315
   3   331.867  331.853  331.824  331.782  331.726  331.658  331.579  331.489  331.389  331.283  331.170  331.053  330.933  330.814  330.698  330.589  330.489  330.405  330.341  330.305
   4   331.853  331.838  331.809  331.766  331.710  331.642  331.562  331.471  331.371  331.264  331.151  331.034  330.915  330.796  330.681  330.572  330.473  330.389  330.326  330.290
   5   331.834  331.819  331.790  331.746  331.690  331.620  331.539  331.448  331.347  331.240  331.126  331.009  330.890  330.772  330.658  330.550  330.452  330.369  330.306  330.270
   6   331.811  331.796  331.766  331.722  331.664  331.594  331.512  331.419  331.318  331.210  331.096  330.979  330.860  330.743  330.629  330.522  330.426  330.344  330.282  330.247
   7   331.785  331.769  331.739  331.694  331.635  331.563  331.480  331.386  331.284  331.174  331.060  330.943  330.825  330.708  330.596  330.490  330.395  330.314  330.254  330.219
   8   331.756  331.740  331.709  331.663  331.603  331.529  331.444  331.349  331.245  331.134  331.019  330.902  330.784  330.669  330.558  330.454  330.360  330.282  330.222  330.189
   9   331.725  331.709  331.677  331.630  331.568  331.493  331.405  331.308  331.202  331.090  330.974  330.857  330.740  330.625  330.516  330.414  330.323  330.246  330.188  330.156
  10   331.693  331.676  331.643  331.595  331.531  331.454  331.364  331.264  331.156  331.043  330.926  330.808  330.691  330.578  330.471  330.371  330.283  330.208  330.152  330.121
  11   331.661  331.644  331.610  331.560  331.494  331.415  331.322  331.220  331.109  330.993  330.875  330.757  330.641  330.529  330.424  330.327  330.241  330.170  330.116  330.086
  12   331.629  331.611  331.577  331.525  331.458  331.376  331.281  331.175  331.061  330.942  330.823  330.704  330.589  330.480  330.377  330.283  330.200  330.132  330.080  330.051
  13   331.599  331.581  331.545  331.493  331.424  331.339  331.242  331.133  331.015  330.893  330.772  330.654  330.540  330.432  330.332  330.241  330.161  330.095  330.046  330.019
  14   331.571  331.553  331.517  331.463  331.393  331.307  331.207  331.095  330.974  330.849  330.726  330.608  330.495  330.389  330.291  330.203  330.126  330.063  330.016  329.990
  15   331.546  331.528  331.491  331.437  331.366  331.279  331.178  331.064  330.941  330.813  330.690  330.572  330.461  330.356  330.260  330.173  330.098  330.036  329.991  329.965
  16   331.525  331.506  331.470  331.415  331.344  331.257  331.156  331.043  330.922  330.796  330.673  330.555  330.443  330.338  330.242  330.155  330.079  330.017  329.971  329.946
  17   331.507  331.489  331.452  331.398  331.327  331.241  331.141  331.030  330.911  330.788  330.667  330.549  330.436  330.330  330.232  330.144  330.067  330.004  329.957  329.931
  18   331.493  331.475  331.438  331.385  331.315  331.229  331.131  331.022  330.906  330.786  330.665  330.548  330.435  330.328  330.229  330.139  330.060  329.996  329.947  329.921
  19   331.483  331.465  331.429  331.375  331.306  331.222  331.125  331.018  330.904  330.786  330.667  330.549  330.436  330.328  330.228  330.137  330.057  329.990  329.941  329.914
  20   331.476  331.458  331.422  331.369  331.300  331.217  331.122  331.016  330.903  330.786  330.668  330.551  330.437  330.329  330.228  330.136  330.055  329.987  329.937  329.909
  21   331.473  331.455  331.419  331.366  331.298  331.215  331.120  331.015  330.903  330.787  330.669  330.552  330.438  330.330  330.228  330.136  330.054  329.986  329.936  329.907

 HEAD WILL BE SAVED ON UNIT 1014 AT END OF TIME STEP    1, STRESS PERIOD    1


  VOLUME BUDGET FOR ENTIRE MODEL AT END OF TIME STEP    1, STRESS PERIOD   1
  ---------------------------------------------------------------------------------------------------

     CUMULATIVE VOLUME      L**3       RATES FOR THIS TIME STEP      L**3/T          PACKAGE NAME    
     ------------------                 ------------------------                     ----------------

           IN:                                      IN:
           ---                                      ---
                 DRN =           0.0000                   DRN =           0.0000     DRN_0                            
                 RIV =           0.0000                   RIV =           0.0000     RIV_0                            
                RCHA =      525000.0000                  RCHA =      525000.0000     RCHA_0                           

            TOTAL IN =      525000.0000              TOTAL IN =      525000.0000

          OUT:                                     OUT:
          ----                                     ----
                 DRN =      228718.2457                   DRN =      228718.2457     DRN_0                            
                 RIV =      296282.0902                   RIV =      296282.0902     RIV_0                            
                RCHA =           0.0000                  RCHA =           0.0000     RCHA_0                           

           TOTAL OUT =      525000.3360             TOTAL OUT =      525000.3360

            IN - OUT =          -0.3360              IN - OUT =          -0.3360

 PERCENT DISCREPANCY =          -0.00     PERCENT DISCREPANCY =          -0.00




         TIME SUMMARY AT END OF TIME STEP    1 IN STRESS PERIOD    1
                    SECONDS     MINUTES      HOURS       DAYS        YEARS
                    -----------------------------------------------------------
   TIME STEP LENGTH  86400.      1440.0      24.000      1.0000     2.73785E-03
 STRESS PERIOD TIME  86400.      1440.0      24.000      1.0000     2.73785E-03
         TOTAL TIME  86400.      1440.0      24.000      1.0000     2.73785E-03


end timestep

