                                   MODFLOW 6
                U.S. GEOLOGICAL SURVEY MODULAR HYDROLOGIC MODEL
                          GROUNDWATER FLOW MODEL (GWF)
                        VERSION 6.4.1 Release 12/09/2022

   MODFLOW 6 compiled Dec 09 2022 18:18:37 with Intel(R) Fortran Intel(R) 64
   Compiler Classic for applications running on Intel(R) 64, Version 2021.7.0
                             Build 20220726_000000

This software has been approved for release by the U.S. Geological 
Survey (USGS). Although the software has been subjected to rigorous 
review, the USGS reserves the right to update the software as needed 
pursuant to further analysis and review. No warranty, expressed or 
implied, is made by the USGS or the U.S. Government as to the 
functionality of the software and related material nor shall the 
fact of release constitute any such warranty. Furthermore, the 
software is released on condition that neither the USGS nor the U.S. 
Government shall be held liable for any damages resulting from its 
authorized or unauthorized use. Also refer to the USGS Water 
Resources Software User Rights Notice for complete use, copyright, 
and distribution information.


As a work of the United States Government, this USGS product is 
in the public domain within the United States. You can copy, 
modify, distribute, and perform the work, even for commercial 
purposes, all without asking permission. Additionally, USGS 
waives copyright and related rights in the work worldwide 
through CC0 1.0 Universal Public Domain Dedication 
(https://creativecommons.org/publicdomain/zero/1.0/).

The following GNU Lesser General Public License (LGPL) libraries
are used in this USGS product:

    SPARSKIT version 2.0
      ilut, luson, and qsplit 
      (https://www-users.cse.umn.edu/~saad/software/SPARSKIT/)

    RCM - Reverse Cuthill McKee Ordering
      (https://people.math.sc.edu/Burkardt/f_src/rcm/rcm.html)

    BLAS - Basic Linear Algebra Subprograms Level 1
      (https://people.math.sc.edu/Burkardt/f_src/blas1_d/blas1_d.html)

    SPARSEKIT - Sparse Matrix Utility Package
      amux, dperm, dvperm, rperm, and cperm
      (https://people.sc.fsu.edu/~jburkardt/f77_src/sparsekit/sparsekit.html)

The following BSD-3 License libraries are used in this USGS product:

    Modern Fortran DAG Library
      Copyright (c) 2018, Jacob Williams
      All rights reserved.
      (https://github.com/jacobwilliams/daglib)

MODFLOW 6 compiler options: /Isrc\libmf6core.a.p /Isrc /I..\src
/Isrc\libmf6_external.a.p /MTd /nologo /warn:general /warn:truncated_source
/stand:f08 /Zi /traceback /O2 /fpe:0 /heap-arrays:0 /traceback /fpp
/Qdiag-disable:7416 /Qdiag-disable:7025 /Qdiag-disable:5268
/Fdsrc\libmf6core.a.p\Utilities_compilerversion.F90.pdb
/module:src\libmf6core.a.p
/Fosrc/libmf6core.a.p/Utilities_compilerversion.F90.obj /c

System command used to initiate simulation:
..\bin\mf6.exe

MODFLOW was compiled using uniform precision.

Real Variables
  KIND: 8
  TINY (smallest non-zero value):    2.225074-308
  HUGE (largest value):    1.797693+308
  PRECISION: 15
  SIZE IN BITS: 64

Integer Variables
  KIND: 4
  HUGE (largest value): 2147483647
  SIZE IN BITS: 32

Long Integer Variables
  KIND: 8
  HUGE (largest value): 9223372036854775807
  SIZE IN BITS: 64

Logical Variables
  KIND: 4
  SIZE IN BITS: 32
 

 OPENED mv.dis
 FILE TYPE:DIS6                   UNIT 1005   STATUS:OLD                 
 FORMAT:FORMATTED              ACCESS:SEQUENTIAL          
 ACTION:READ                


 OPENED mv.ic
 FILE TYPE:IC6                    UNIT 1006   STATUS:OLD                 
 FORMAT:FORMATTED              ACCESS:SEQUENTIAL          
 ACTION:READ                


 OPENED mv.npf
 FILE TYPE:NPF6                   UNIT 1007   STATUS:OLD                 
 FORMAT:FORMATTED              ACCESS:SEQUENTIAL          
 ACTION:READ                


 OPENED mv.oc
 FILE TYPE:OC6                    UNIT 1008   STATUS:OLD                 
 FORMAT:FORMATTED              ACCESS:SEQUENTIAL          
 ACTION:READ                


 OPENED mv.ghb
 FILE TYPE:GHB6                   UNIT 1009   STATUS:OLD                 
 FORMAT:FORMATTED              ACCESS:SEQUENTIAL          
 ACTION:READ                


 OPENED mv.rch
 FILE TYPE:RCH6                   UNIT 1010   STATUS:OLD                 
 FORMAT:FORMATTED              ACCESS:SEQUENTIAL          
 ACTION:READ                


 OPENED mv.riv
 FILE TYPE:RIV6                   UNIT 1011   STATUS:OLD                 
 FORMAT:FORMATTED              ACCESS:SEQUENTIAL          
 ACTION:READ                


 OPENED mv.wel
 FILE TYPE:WEL6                   UNIT 1012   STATUS:OLD                 
 FORMAT:FORMATTED              ACCESS:SEQUENTIAL          
 ACTION:READ                

 NAMEFILE OPTIONS:
    FLOWS WILL BE SAVED TO BUDGET FILE SPECIFIED IN OUTPUT CONTROL

 DIS -- STRUCTURED GRID DISCRETIZATION PACKAGE, VERSION 2 : 3/27/2014 - INPUT READ FROM UNIT 1005

 Loading input for MV/DIS
   XORIGIN = .000000000000000
   YORIGIN = .000000000000000
   ANGROT = .000000000000000
   NLAY = 5
   NROW = 40
   NCOL = 25
   DELR = 500.0000000000000
   DELC = 500.0000000000000
   TOP = 100.0000000000000
   BOTM = variable 3D double precision array ranging from -250.0000000000000 to -5.000000000000000
   IDOMAIN = variable 3D integer array ranging from 0 to 1
 Loading input complete...


 NPF -- NODE PROPERTY FLOW PACKAGE, VERSION 1, 3/30/2015 INPUT READ FROM UNIT 1007

 Loading input for MV/NPF
   IPAKCB = 1
   ISAVSPDIS = 1
   ICELLTYPE = variable 1D integer array ranging from 0 to 1
   K = variable 1D double precision array ranging from .3000000000000000E-02 to 400.0000000000000
   K33 = variable 1D double precision array ranging from .3000000000000000E-02 to 200.0000000000000
 Loading input complete...

 Setting Discretization Options
    Model length unit [0=UND, 1=FEET, 2=METERS, 3=CENTIMETERS] set as 1
    XORIGIN = .000000000000000
    YORIGIN = .000000000000000
    ANGROT = .000000000000000
 End Setting Discretization Options

 Setting Discretization Dimensions
    NLAY = 5
    NROW = 40
    NCOL = 25
 End Setting Discretization Dimensions

 Setting Discretization Griddata
    DELR set from input file
    DELC set from input file
    TOP set from input file
    BOTM set from input file
    IDOMAIN set from input file
 End Setting Discretization Griddata


 The specified IDOMAIN results in a reduced number of cells.
 Number of user nodes: 5000
 Number of nodes in solution: 4935


 Setting NPF Options
    Cell-by-cell flow information will be saved to binary file whenever ICBCFL is not zero.
    Specific discharge will be calculated at cell centers and written to DATA-SPDIS in budget file when requested.
 End Setting NPF Options

 Setting NPF Griddata
    ICELLTYPE set from input file
    K set from input file
    K33 set from input file
    K22 not provided.  Setting K22 = K.
 End Setting NPF Griddata


 WEL   -- WEL PACKAGE, VERSION 8, 2/22/2014 INPUT READ FROM UNIT 1012

 PROCESSING WEL OPTIONS
    LISTS OF WEL CELLS WILL BE PRINTED.
    WEL FLOWS WILL BE PRINTED TO LISTING FILE.
    FLOWS WILL BE SAVED TO BUDGET FILE SPECIFIED IN OUTPUT CONTROL
 END OF WEL OPTIONS

 PROCESSING WEL DIMENSIONS
    MAXBOUND =       2
 END OF WEL DIMENSIONS

 RIV   -- RIV PACKAGE, VERSION 8, 2/22/2014 INPUT READ FROM UNIT 1011

 PROCESSING RIV OPTIONS
    LISTS OF RIV CELLS WILL BE PRINTED.
    RIV FLOWS WILL BE PRINTED TO LISTING FILE.
    FLOWS WILL BE SAVED TO BUDGET FILE SPECIFIED IN OUTPUT CONTROL
    RIV BOUNDARIES HAVE NAMES IN LAST COLUMN.

 OPENED mv.riv.obs
 FILE TYPE:OBS   UNIT 1026   STATUS:OLD                 
 FORMAT:FORMATTED              ACCESS:SEQUENTIAL          
 ACTION:READ                

 END OF RIV OPTIONS

 PROCESSING RIV DIMENSIONS
    MAXBOUND =      18
 END OF RIV DIMENSIONS

 GHB   -- GHB PACKAGE, VERSION 8, 2/22/2014 INPUT READ FROM UNIT 1009

 PROCESSING GHB OPTIONS
    LISTS OF GHB CELLS WILL BE PRINTED.
    GHB FLOWS WILL BE PRINTED TO LISTING FILE.
    FLOWS WILL BE SAVED TO BUDGET FILE SPECIFIED IN OUTPUT CONTROL
 END OF GHB OPTIONS

 PROCESSING GHB DIMENSIONS
    MAXBOUND =     105
 END OF GHB DIMENSIONS

 RCH   -- RCH PACKAGE, VERSION 8, 2/22/2014 INPUT READ FROM UNIT 1010

 PROCESSING RCH OPTIONS
    FLOWS WILL BE SAVED TO BUDGET FILE SPECIFIED IN OUTPUT CONTROL
    RECHARGE INPUT WILL BE READ AS ARRAY(S).
 END OF RCHA OPTIONS

 IC -- INITIAL CONDITIONS PACKAGE, VERSION 8, 3/28/2015 INPUT READ FROM UNIT 1006
 PROCESSING IC OPTIONS
 END OF IC OPTIONS
 PROCESSING GRIDDATA

     INITIAL HEAD =   11.00000     FOR LAYER 1

     INITIAL HEAD =   11.00000     FOR LAYER 2

     INITIAL HEAD =   11.00000     FOR LAYER 3

     INITIAL HEAD =   11.00000     FOR LAYER 4

     INITIAL HEAD =   11.00000     FOR LAYER 5
 END PROCESSING GRIDDATA
    BINARY GRID INFORMATION WILL BE WRITTEN TO:
      UNIT NUMBER: 1027
      FILE NAME: C:\Users\jlarsen\Desktop\modflow-sandiego-2023\ProblemSets\3_mv\work\modpath\mv_b\mv.dis.grb

 OPENED C:\Users\jlarsen\Desktop\modflow-sandiego-2023\ProblemSets\3_mv\work\modpath\mv_b\mv.dis.grb
 FILE TYPE:DATA(BINARY)   UNIT 1027   STATUS:REPLACE             
 FORMAT:UNFORMATTED            ACCESS:STREAM              
 ACTION:READWRITE           

      THE LAST TIME STEP WILL BE PRINTED
      THE LAST TIME STEP WILL BE PRINTED

 PROCESSING OC OPTIONS

    HEAD INFORMATION WILL BE WRITTEN TO:
      UNIT NUMBER: 1028
      FILE NAME: mv.hed

 OPENED mv.hed
 FILE TYPE:DATA(BINARY)   UNIT 1028   STATUS:REPLACE             
 FORMAT:UNFORMATTED            ACCESS:STREAM              
 ACTION:READWRITE           

    BUDGET INFORMATION WILL BE WRITTEN TO:
      UNIT NUMBER: 1029
      FILE NAME: mv.bud

 OPENED mv.bud
 FILE TYPE:DATA(BINARY)   UNIT 1029   STATUS:REPLACE             
 FORMAT:UNFORMATTED            ACCESS:STREAM              
 ACTION:READWRITE           

 END OF OC OPTIONS

The observation utility is active for "RIV-1"

Processing observation options:

Text output number of digits of precision set to: 15
The PRINT_INPUT option has been specified.


 OBSERVATIONS READ FROM FILE "mv.riv.obs"
 ----------------------------------------------------------------------------------------------------------------------------------------------------------------------------------------------------------------------------
 NAME                                     TYPE                                       TIME         LOCATION DATA                              OUTPUT FILENAME                                                                 
 ----------------------------------------------------------------------------------------------------------------------------------------------------------------------------------------------------------------------------
 RIV_1                                    CONTINUOUS  RIV                            ALL TIMES    "  POLFORD"                                riv.obs.csv                                                                     
 ----------------------------------------------------------------------------------------------------------------------------------------------------------------------------------------------------------------------------



start timestep kper="1" kstp="1" mode="normal"


 BEGIN READING OUTPUT CONTROL FOR STRESS PERIOD 1
      ALL TIME STEPS WILL BE SAVED
      ALL TIME STEPS WILL BE PRINTED
      ALL TIME STEPS WILL BE SAVED
      ALL TIME STEPS WILL BE PRINTED

 END READING OUTPUT CONTROL FOR STRESS PERIOD 1
 ---------------------------------------------------
  WEL NO.    LAYER    ROW     COL     STRESS RATE   
 ---------------------------------------------------
     1         5       6      15    -67000.0000     
     2         5      33       6    -268000.000     
 ---------------------------------------------------


 ------------------------------------------------------------------------------------------------------------------------------
  RIV NO.    LAYER    ROW     COL        STAGE         CONDUCTANCE       BOTTOM EL.    BOUNDNAME                               
 ------------------------------------------------------------------------------------------------------------------------------
     1         1      23       9     1.75000000       100000.000      -2.00000000      POLFORD                                 
     2         1      24       9     1.65000000       100000.000      -2.00000000      POLFORD                                 
     3         1      25       9     1.55000000       100000.000      -2.00000000      SOBOUND                                 
     4         1      26       9     1.45000000       100000.000      -2.00000000      SOBOUND                                 
     5         1      27       9     1.35000000       100000.000      -2.00000000      SOBOUND                                 
     6         1      28       9     1.25000000       100000.000      -2.00000000      SOBOUND                                 
     7         1      29       9     1.15000000       100000.000      -2.00000000      SOBOUND                                 
     8         1      30       9     1.05000000       100000.000      -2.00000000      SOBOUND                                 
     9         1      31       9     0.950000000      100000.000      -2.00000000      SOBOUND                                 
     10        1      32       9     0.850000000      100000.000      -2.00000000      SOBOUND                                 
     11        1      33       9     0.750000000      100000.000      -2.00000000      SOBOUND                                 
     12        1      34       9     0.650000000      100000.000      -2.00000000      SOBOUND                                 
     13        1      35       9     0.550000000      100000.000      -2.00000000      SOBOUND                                 
     14        1      36       9     0.450000000      100000.000      -2.00000000      SOBOUND                                 
     15        1      37       9     0.350000000      100000.000      -2.00000000      SOBOUND                                 
     16        1      38       9     0.250000000      100000.000      -2.00000000      SOBOUND                                 
     17        1      39       9     0.150000000      100000.000      -2.00000000      SOBOUND                                 
     18        1      40       9     5.000000000E-02  100000.000      -2.00000000      SOBOUND                                 
 ------------------------------------------------------------------------------------------------------------------------------


 --------------------------------------------------------------------
  GHB NO.    LAYER    ROW     COL        STAGE         CONDUCTANCE   
 --------------------------------------------------------------------
     1         2       4       4     9.38000000       555000.000     
     2         2       4       5     9.38000000       555000.000     
     3         2       4       6     9.38000000       555000.000     
     4         2       4       7     9.38000000       555000.000     
     5         2       5       3     9.38000000       555000.000     
     6         2       5       4     9.38000000       555000.000     
     7         2       5       5     9.38000000       555000.000     
     8         2       5       6     9.38000000       555000.000     
     9         2       5       7     9.38000000       555000.000     
     10        2       6       3     9.38000000       555000.000     
     11        2       6       4     9.38000000       555000.000     
     12        2       6       5     9.38000000       555000.000     
     13        2       6       6     9.38000000       555000.000     
     14        2       6       7     9.38000000       555000.000     
     15        2       7       3     9.38000000       555000.000     
     16        2       7       4     9.38000000       555000.000     
     17        2       7       5     9.38000000       555000.000     
     18        2       7       6     9.38000000       555000.000     
     19        2       7       7     9.38000000       555000.000     
     20        2       8       3     9.38000000       555000.000     
     21        2       8       4     9.38000000       555000.000     
     22        2       8       5     9.38000000       555000.000     
     23        2       8       6     9.38000000       555000.000     
     24        2       8       7     9.38000000       555000.000     
     25        2       9       3     9.38000000       555000.000     
     26        2       9       4     9.38000000       555000.000     
     27        2       9       5     9.38000000       555000.000     
     28        2       9       6     9.38000000       555000.000     
     29        2       9       7     9.38000000       555000.000     
     30        2      10       3     9.38000000       555000.000     
     31        2      10       4     9.38000000       555000.000     
     32        2      10       5     9.38000000       555000.000     
     33        2      10       6     9.38000000       555000.000     
     34        2      10       7     9.38000000       555000.000     
     35        2      10       8     9.38000000       555000.000     
     36        2      11       4     9.38000000       555000.000     
     37        2      11       5     9.38000000       555000.000     
     38        2      11       6     9.38000000       555000.000     
     39        2      11       7     9.38000000       555000.000     
     40        2      11       8     9.38000000       555000.000     
     41        2      12       4     9.38000000       555000.000     
     42        2      12       5     9.38000000       555000.000     
     43        2      12       6     9.38000000       555000.000     
     44        2      12       7     9.38000000       555000.000     
     45        2      12       8     9.38000000       555000.000     
     46        2      12       9     9.38000000       555000.000     
     47        2      13       5     9.38000000       555000.000     
     48        2      13       6     9.38000000       555000.000     
     49        2      13       7     9.38000000       555000.000     
     50        2      13       8     9.38000000       555000.000     
     51        2      13       9     9.38000000       555000.000     
     52        2      14       5     9.38000000       555000.000     
     53        2      14       6     9.38000000       555000.000     
     54        2      14       7     9.38000000       555000.000     
     55        2      14       8     9.38000000       555000.000     
     56        2      14       9     9.38000000       555000.000     
     57        2      15       5     9.38000000       555000.000     
     58        2      15       6     9.38000000       555000.000     
     59        2      15       7     9.38000000       555000.000     
     60        2      15       8     9.38000000       555000.000     
     61        2      15       9     9.38000000       555000.000     
     62        2      16       6     9.38000000       555000.000     
     63        2      16       7     9.38000000       555000.000     
     64        2      16       8     9.38000000       555000.000     
     65        2      16       9     9.38000000       555000.000     
     66        1       3       4     9.38000000       6400.00000     
     67        1       3       5     9.38000000       6400.00000     
     68        1       3       6     9.38000000       6400.00000     
     69        1       3       7     9.38000000       6400.00000     
     70        1       4       8     9.38000000       6400.00000     
     71        1       5       8     9.38000000       6400.00000     
     72        1       6       8     9.38000000       6400.00000     
     73        1       7       8     9.38000000       6400.00000     
     74        1       8       8     9.38000000       6400.00000     
     75        1       9       8     9.38000000       6400.00000     
     76        1       9       8     9.38000000       6400.00000     
     77        1      10       9     9.38000000       6400.00000     
     78        1      11       9     9.38000000       6400.00000     
     79        1      11       9     9.38000000       6400.00000     
     80        1      12      10     9.38000000       6400.00000     
     81        1      13      10     9.38000000       6400.00000     
     82        1      14      10     9.38000000       6400.00000     
     83        1      15      10     9.38000000       6400.00000     
     84        1      16      10     9.38000000       6400.00000     
     85        1      17       9     9.38000000       6400.00000     
     86        1      17       8     9.38000000       6400.00000     
     87        1      17       7     9.38000000       6400.00000     
     88        1      17       6     9.38000000       6400.00000     
     89        1      16       5     9.38000000       6400.00000     
     90        1      16       5     9.38000000       6400.00000     
     91        1      15       4     9.38000000       6400.00000     
     92        1      14       4     9.38000000       6400.00000     
     93        1      13       4     9.38000000       6400.00000     
     94        1      13       4     9.38000000       6400.00000     
     95        1      12       3     9.38000000       6400.00000     
     96        1      11       3     9.38000000       6400.00000     
     97        1      11       3     9.38000000       6400.00000     
     98        1      10       2     9.38000000       6400.00000     
     99        1       9       2     9.38000000       6400.00000     
    100        1       8       2     9.38000000       6400.00000     
    101        1       7       2     9.38000000       6400.00000     
    102        1       6       2     9.38000000       6400.00000     
    103        1       5       2     9.38000000       6400.00000     
    104        1       4       3     9.38000000       6400.00000     
    105        1       4       3     9.38000000       6400.00000     
 --------------------------------------------------------------------



                 RECHARGE =  0.3641000E-02
 UBDSV1 SAVING     FLOW-JA-FACE ON UNIT   1029 AT TIME STEP      1, STRESS PERIOD      1
 UBDSV06 SAVING       DATA-SPDIS IN MODEL MV               PACKAGE NPF             CONNECTED TO MODEL MV               PACKAGE NPF              ON UNIT   1029 AT TIME STEP      1, STRESS PERIOD      1
 UBDSV06 SAVING              WEL IN MODEL MV               PACKAGE MV              CONNECTED TO MODEL MV               PACKAGE WEL-1            ON UNIT   1029 AT TIME STEP      1, STRESS PERIOD      1
 UBDSV06 SAVING              RIV IN MODEL MV               PACKAGE MV              CONNECTED TO MODEL MV               PACKAGE RIV-1            ON UNIT   1029 AT TIME STEP      1, STRESS PERIOD      1
 UBDSV06 SAVING              GHB IN MODEL MV               PACKAGE MV              CONNECTED TO MODEL MV               PACKAGE GHB-1            ON UNIT   1029 AT TIME STEP      1, STRESS PERIOD      1
 UBDSV06 SAVING             RCHA IN MODEL MV               PACKAGE MV              CONNECTED TO MODEL MV               PACKAGE RCH-1            ON UNIT   1029 AT TIME STEP      1, STRESS PERIOD      1

 WEL PACKAGE (WEL-1) FLOW RATES   PERIOD      1   STEP        1
 -----------------------------------------------
   NUMBER   CELLID                    RATE      
 -----------------------------------------------
     1      (5,6,15)             -67000.000     
     2      (5,33,6)             -268000.00     
 -----------------------------------------------




 RIV PACKAGE (RIV-1) FLOW RATES   PERIOD      1   STEP        1
 ----------------------------------------------------------------------------------------
   NUMBER   CELLID                    RATE       NAME                                    
 ----------------------------------------------------------------------------------------
     1      (1,23,9)             -80604.944      POLFORD                                 
     2      (1,24,9)             -61004.286      POLFORD                                 
     3      (1,25,9)             -50349.851      SOBOUND                                 
     4      (1,26,9)             -43231.339      SOBOUND                                 
     5      (1,27,9)             -37717.934      SOBOUND                                 
     6      (1,28,9)             -32951.170      SOBOUND                                 
     7      (1,29,9)             -28434.545      SOBOUND                                 
     8      (1,30,9)             -23852.925      SOBOUND                                 
     9      (1,31,9)             -19128.112      SOBOUND                                 
     10     (1,32,9)             -14742.258      SOBOUND                                 
     11     (1,33,9)             -12056.067      SOBOUND                                 
     12     (1,34,9)             -13002.563      SOBOUND                                 
     13     (1,35,9)             -15617.358      SOBOUND                                 
     14     (1,36,9)             -18497.718      SOBOUND                                 
     15     (1,37,9)             -21150.327      SOBOUND                                 
     16     (1,38,9)             -23554.036      SOBOUND                                 
     17     (1,39,9)             -25911.118      SOBOUND                                 
     18     (1,40,9)             -28754.431      SOBOUND                                 
 ----------------------------------------------------------------------------------------




 GHB PACKAGE (GHB-1) FLOW RATES   PERIOD      1   STEP        1
 -----------------------------------------------
   NUMBER   CELLID                    RATE      
 -----------------------------------------------
     1      (2,4,4)              -2365.8093     
     2      (2,4,5)              -1609.7297     
     3      (2,4,6)              -2195.7111     
     4      (2,4,7)              -6193.0777     
     5      (2,5,3)              -2003.4424     
     6      (2,5,4)               83.624763     
     7      (2,5,5)               99.668523     
     8      (2,5,6)              -8.3871277     
     9      (2,5,7)              -3056.1939     
     10     (2,6,3)              -732.24904     
     11     (2,6,4)               164.80941     
     12     (2,6,5)               174.77318     
     13     (2,6,6)               91.739102     
     14     (2,6,7)              -2585.8597     
     15     (2,7,3)              -514.89976     
     16     (2,7,4)               197.39216     
     17     (2,7,5)               201.86397     
     18     (2,7,6)               130.90837     
     19     (2,7,7)              -2237.3860     
     20     (2,8,3)              -329.33676     
     21     (2,8,4)               236.17100     
     22     (2,8,5)               236.90068     
     23     (2,8,6)               175.67514     
     24     (2,8,7)              -1818.3145     
     25     (2,9,3)              -89.833260     
     26     (2,9,4)               283.61178     
     27     (2,9,5)               281.45252     
     28     (2,9,6)               234.63740     
     29     (2,9,7)              -1140.3531     
     30     (2,10,3)              521.66842     
     31     (2,10,4)              348.77388     
     32     (2,10,5)              332.26268     
     33     (2,10,6)              314.38653     
     34     (2,10,7)              174.41926     
     35     (2,10,8)             -3207.6505     
     36     (2,11,4)              676.99179     
     37     (2,11,5)              400.58817     
     38     (2,11,6)              376.55919     
     39     (2,11,7)              324.23796     
     40     (2,11,8)             -1074.1280     
     41     (2,12,4)              2153.4272     
     42     (2,12,5)              512.89189     
     43     (2,12,6)              455.93160     
     44     (2,12,7)              426.33915     
     45     (2,12,8)              291.65171     
     46     (2,12,9)             -2444.4538     
     47     (2,13,5)              1385.5152     
     48     (2,13,6)              568.00948     
     49     (2,13,7)              525.36413     
     50     (2,13,8)              485.13887     
     51     (2,13,9)             -356.68576     
     52     (2,14,5)              2483.3164     
     53     (2,14,6)              708.31690     
     54     (2,14,7)              657.53277     
     55     (2,14,8)              630.03266     
     56     (2,14,9)              492.29030     
     57     (2,15,5)              7009.8191     
     58     (2,15,6)              1051.0380     
     59     (2,15,7)              888.73332     
     60     (2,15,8)              865.61783     
     61     (2,15,9)              1524.9111     
     62     (2,16,6)              9920.8868     
     63     (2,16,7)              6368.0705     
     64     (2,16,8)              5892.9615     
     65     (2,16,9)              7970.6005     
     66     (1,3,4)              -1142.5179     
     67     (1,3,5)              -979.23767     
     68     (1,3,6)              -1041.0223     
     69     (1,3,7)              -1299.2140     
     70     (1,4,8)              -1426.9228     
     71     (1,5,8)              -1193.5893     
     72     (1,6,8)              -1054.5373     
     73     (1,7,8)              -935.31454     
     74     (1,8,8)              -791.14023     
     75     (1,9,8)              -551.88790     
     76     (1,9,8)              -551.88790     
     77     (1,10,9)             -863.28712     
     78     (1,11,9)             -542.76601     
     79     (1,11,9)             -542.76601     
     80     (1,12,10)            -736.20699     
     81     (1,13,10)            -443.15646     
     82     (1,14,10)            -98.690981     
     83     (1,15,10)             481.70966     
     84     (1,16,10)             1601.5644     
     85     (1,17,9)              3558.4795     
     86     (1,17,8)              3525.7866     
     87     (1,17,7)              3846.1541     
     88     (1,17,6)              4678.9669     
     89     (1,16,5)              2259.5458     
     90     (1,16,5)              2259.5458     
     91     (1,15,4)              2245.6692     
     92     (1,14,4)              1233.8830     
     93     (1,13,4)              553.13124     
     94     (1,13,4)              553.13124     
     95     (1,12,3)              632.19948     
     96     (1,11,3)              156.09633     
     97     (1,11,3)              156.09633     
     98     (1,10,2)             -73.102836     
     99     (1,9,2)              -307.03780     
    100     (1,8,2)              -444.65000     
    101     (1,7,2)              -551.08681     
    102     (1,6,2)              -674.48803     
    103     (1,5,2)              -892.97812     
    104     (1,4,3)              -747.59801     
    105     (1,4,3)              -747.59801     
 -----------------------------------------------



1
  HEAD IN LAYER   1 AT END OF TIME STEP   1 IN STRESS PERIOD    1
  ---------------------------------------------------------------------------

           1       2       3       4       5       6       7       8       9      10      11      12      13      14      15      16      17      18      19      20      21      22      23      24      25
 ...........................................................................................................................................................................................................
   1     9.80    9.79    9.77    9.74    9.73    9.74    9.78    9.84    9.91    9.99   10.07   10.15   10.22   10.28   10.35   10.40   10.45   10.49   10.50   10.47   10.35   10.40   10.45   10.49   10.50
   2     9.78    9.76    9.72    9.69    9.67    9.67    9.71    9.79    9.88    9.97   10.05   10.13   10.20   10.27   10.33   10.39   10.44   10.49   10.51   10.52   10.49   10.51   10.53   10.53   10.50
   3     9.72    9.69    9.63    9.56    9.53    9.54    9.58    9.70    9.82    9.92   10.01   10.10   10.18   10.25   10.31   10.37   10.43   10.48   10.51   10.53   10.54   10.56   10.56   10.54   10.48
   4     9.66    9.61    9.50 ******* ******* ******* *******    9.60    9.75    9.86    9.96   10.06   10.14   10.21   10.28   10.34   10.40   10.46   10.50   10.53   10.55   10.56   10.55   10.52   10.45
   5     9.59    9.52 ******* ******* ******* ******* *******    9.57    9.71    9.82    9.92   10.01   10.09   10.17   10.24   10.31   10.37   10.43   10.48   10.51   10.53   10.53   10.52   10.48   10.42
   6     9.55    9.49 ******* ******* ******* ******* *******    9.54    9.68    9.79    9.88    9.96   10.04   10.12   10.19   10.26   10.33   10.39   10.44   10.48   10.49   10.49   10.47   10.42   10.37
   7     9.52    9.47 ******* ******* ******* ******* *******    9.53    9.65    9.76    9.84    9.92   10.00   10.08   10.15   10.22   10.29   10.35   10.40   10.43   10.44   10.43   10.39   10.31   10.33
   8     9.49    9.45 ******* ******* ******* ******* *******    9.50    9.62    9.72    9.80    9.88    9.96   10.04   10.11   10.18   10.24   10.30   10.34   10.37   10.38   10.36   10.31   10.26   10.28
   9     9.45    9.43 ******* ******* ******* ******* *******    9.47    9.57    9.67    9.76    9.84    9.91    9.99   10.06   10.13   10.19   10.24   10.28   10.31   10.31   10.27   10.19   10.21   10.23
  10     9.40    9.39 ******* ******* ******* ******* ******* *******    9.51    9.62    9.71    9.79    9.86    9.93   10.00   10.06   10.12   10.17   10.21   10.23   10.23   10.20   10.12   10.16   10.17
  11     9.29    9.32    9.36 ******* ******* ******* ******* *******    9.46    9.56    9.65    9.72    9.79    9.86    9.92    9.98   10.03   10.08   10.12   10.15   10.15   10.12   10.05   10.09   10.11
  12     9.10    9.18    9.28 ******* ******* ******* ******* ******* *******    9.50    9.58    9.64    9.70    9.76    9.82    9.88    9.93    9.98   10.02   10.05   10.06   10.04    9.98   10.01   10.03
  13     8.74    8.96    9.13    9.29 ******* ******* ******* ******* *******    9.45    9.50    9.55    9.59    9.64    9.70    9.75    9.81    9.86    9.90    9.94    9.95    9.95    9.90    9.93    9.95
  14     8.54    8.73    8.95    9.19 ******* ******* ******* ******* *******    9.40    9.41    9.43    9.46    9.50    9.55    9.60    9.66    9.71    9.76    9.80    9.83    9.83    9.80    9.83    9.85
  15     8.30    8.36    8.69    9.03 ******* ******* ******* ******* *******    9.30    9.27    9.26    9.28    9.32    9.37    9.43    9.48    9.54    9.59    9.64    9.66    9.64    9.68    9.72    9.74
  16     8.02    8.06    8.31    8.64    9.03 ******* ******* ******* *******    9.13    9.03    9.02    9.06    9.10    9.16    9.21    9.27    9.32    9.38    9.44    9.44    9.50    9.56    9.60    9.62
  17     7.70    7.72    7.80    8.08    8.35    8.65    8.78    8.83    8.82    8.70    8.66    8.66    8.73    8.80    8.86    8.91    8.98    9.00    9.11    9.20    9.28    9.36    9.42    9.46    9.47
  18     7.33    7.35    7.38    7.44    7.51    7.59    7.91    8.02    8.07    8.09    8.13    8.20    8.29    8.39    8.47    8.49    8.63    8.77    8.90    9.01    9.11    9.19    9.25    9.29    9.31
  19     6.93    6.93    6.95    6.97    6.99    7.01    7.05    7.09    7.17    7.28    7.42    7.58    7.73    7.88    8.04    8.18    8.35    8.52    8.68    8.80    8.91    9.00    9.06    9.11    9.13
  20     6.49    6.49    6.49    6.48    6.47    6.45    6.45    6.46    6.53    6.68    6.87    7.08    7.27    7.47    7.66    7.84    8.04    8.24    8.41    8.56    8.69    8.78    8.86    8.91    8.94
  21     6.04    6.03    6.01    5.98    5.93    5.87    5.81    5.77    5.81    6.02    6.30    6.56    6.81    7.04    7.27    7.48    7.71    7.94    8.13    8.31    8.45    8.56    8.65    8.71    8.74
  22     5.58    5.56    5.52    5.46    5.38    5.27    5.14    4.98    4.86    5.26    5.70    6.06    6.36    6.64    6.90    7.13    7.38    7.63    7.85    8.04    8.20    8.33    8.43    8.50    8.53
  23     5.11    5.08    5.02    4.94    4.82    4.67    4.45    4.08    2.56    4.38    5.09    5.59    5.96    6.29    6.57    6.83    7.09    7.35    7.58    7.78    7.95    8.10    8.21    8.28    8.32
  24     4.64    4.61    4.54    4.44    4.31    4.13    3.87    3.48    2.26    3.81    4.58    5.15    5.58    5.94    6.26    6.54    6.83    7.11    7.35    7.55    7.72    7.87    7.99    8.07    8.11
  25     4.19    4.16    4.09    3.99    3.85    3.66    3.41    3.05    2.05    3.43    4.19    4.78    5.23    5.63    5.97    6.27    6.58    6.87    7.12    7.34    7.52    7.66    7.77    7.86    7.91
  26     3.75    3.72    3.65    3.54    3.41    3.23    3.01    2.71    1.88    3.13    3.87    4.46    4.93    5.34    5.70    6.01    6.34    6.64    6.91    7.14    7.32    7.47    7.58    7.66    7.71
  27     3.33    3.29    3.22    3.11    2.98    2.82    2.64    2.40    1.73    2.88    3.59    4.18    4.66    5.08    5.45    5.78    6.11    6.43    6.71    6.95    7.14    7.30    7.41    7.48    7.53
  28     2.91    2.87    2.80    2.69    2.56    2.42    2.28    2.11    1.58    2.65    3.35    3.94    4.42    4.84    5.22    5.56    5.90    6.24    6.53    6.77    6.97    7.13    7.25    7.33    7.37
  29     2.52    2.47    2.38    2.26    2.13    2.00    1.91    1.82    1.43    2.45    3.14    3.72    4.20    4.64    5.02    5.37    5.72    6.06    6.35    6.60    6.81    6.98    7.10    7.18    7.23
  30     2.15    2.09    1.98    1.83    1.66    1.53    1.50    1.51    1.29    2.25    2.94    3.53    4.02    4.45    4.84    5.19    5.55    5.89    6.20    6.45    6.67    6.83    6.96    7.04    7.09
  31     1.81    1.74    1.59    1.38    1.13    0.95    1.02    1.18    1.14    2.05    2.73    3.35    3.86    4.29    4.68    5.03    5.39    5.75    6.05    6.32    6.53    6.71    6.84    6.92    6.97
  32     1.53    1.44    1.25    0.95    0.52    0.10    0.46    0.83    1.00    1.88    2.56    3.18    3.71    4.15    4.54    4.90    5.26    5.62    5.93    6.20    6.42    6.59    6.73    6.82    6.86
  33     1.31    1.22    1.00    0.63   -0.04   -1.13   -0.08    0.56    0.87    1.73    2.40    3.02    3.57    4.03    4.43    4.78    5.14    5.50    5.82    6.09    6.32    6.50    6.63    6.73    6.77
  34     1.17    1.08    0.90    0.61    0.20   -0.21    0.17    0.57    0.78    1.62    2.28    2.88    3.42    3.91    4.33    4.68    5.04    5.40    5.73    6.00    6.23    6.41    6.55    6.64    6.69
  35     1.09    1.03    0.89    0.70    0.48    0.33    0.45    0.65    0.71    1.54    2.18    2.77    3.31    3.79    4.23    4.59    4.96    5.31    5.64    5.93    6.16    6.35    6.48    6.57    6.62
  36     1.06    1.01    0.92    0.80    0.67    0.60    0.63    0.72    0.63    1.48    2.11    2.68    3.21    3.69    4.12    4.50    4.88    5.25    5.58    5.86    6.10    6.28    6.42    6.52    6.56
  37     1.05    1.02    0.96    0.88    0.80    0.75    0.74    0.75    0.56    1.42    2.04    2.61    3.14    3.61    4.04    4.42    4.81    5.19    5.53    5.81    6.05    6.23    6.37    6.47    6.52
  38     1.06    1.03    0.99    0.93    0.87    0.83    0.79    0.76    0.49    1.37    1.99    2.56    3.08    3.56    3.98    4.37    4.76    5.15    5.48    5.77    6.01    6.20    6.34    6.43    6.48
  39     1.07    1.05    1.01    0.97    0.92    0.87    0.82    0.76    0.41    1.33    1.95    2.52    3.04    3.52    3.95    4.33    4.73    5.12    5.46    5.74    5.98    6.17    6.31    6.41    6.46
  40     1.07    1.06    1.02    0.98    0.94    0.88    0.83    0.75    0.34    1.31    1.93    2.50    3.03    3.50    3.93    4.32    4.71    5.10    5.44    5.73    5.97    6.16    6.30    6.40    6.44
1
  HEAD IN LAYER   2 AT END OF TIME STEP   1 IN STRESS PERIOD    1
  ---------------------------------------------------------------------------

           1       2       3       4       5       6       7       8       9      10      11      12      13      14      15      16      17      18      19      20      21      22      23      24      25
 ...........................................................................................................................................................................................................
   1     9.80    9.79    9.76    9.74    9.73    9.74    9.78    9.84    9.91    9.99   10.07   10.14   10.21   10.28   10.34   10.40   10.45   10.48   10.50   10.47   10.34   10.40   10.45   10.48   10.50
   2     9.77    9.75    9.72    9.68    9.67    9.67    9.71    9.79    9.88    9.96   10.05   10.13   10.20   10.27   10.33   10.39   10.44   10.48   10.51   10.51   10.49   10.51   10.53   10.53   10.49
   3     9.72    9.69    9.63    9.56    9.53    9.54    9.58    9.70    9.81    9.92   10.01   10.09   10.17   10.24   10.31   10.37   10.43   10.47   10.51   10.53   10.54   10.55   10.56   10.53   10.47
   4     9.65    9.60    9.50    9.38    9.38    9.38    9.39    9.60    9.75    9.86    9.96   10.05   10.13   10.21   10.27   10.34   10.40   10.45   10.50   10.53   10.55   10.55   10.55   10.52   10.44
   5     9.59    9.52    9.38    9.38    9.38    9.38    9.39    9.56    9.71    9.82    9.91   10.00   10.09   10.16   10.23   10.30   10.37   10.43   10.47   10.51   10.53   10.53   10.52   10.48   10.41
   6     9.55    9.48    9.38    9.38    9.38    9.38    9.38    9.54    9.68    9.79    9.88    9.96   10.04   10.12   10.19   10.26   10.33   10.39   10.44   10.47   10.49   10.49   10.46   10.42   10.37
   7     9.51    9.46    9.38    9.38    9.38    9.38    9.38    9.52    9.65    9.75    9.84    9.92   10.00   10.08   10.15   10.22   10.29   10.35   10.39   10.43   10.44   10.43   10.39   10.31   10.32
   8     9.49    9.45    9.38    9.38    9.38    9.38    9.38    9.50    9.61    9.71    9.80    9.88    9.96   10.04   10.11   10.18   10.24   10.30   10.34   10.37   10.38   10.36   10.31   10.26   10.28
   9     9.45    9.42    9.38    9.38    9.38    9.38    9.38    9.46    9.57    9.67    9.76    9.84    9.91    9.99   10.06   10.12   10.18   10.24   10.28   10.30   10.30   10.27   10.18   10.21   10.23
  10     9.39    9.39    9.38    9.38    9.38    9.38    9.38    9.39    9.51    9.62    9.70    9.78    9.86    9.93    9.99   10.06   10.11   10.17   10.21   10.23   10.23   10.19   10.12   10.15   10.17
  11     9.29    9.31    9.35    9.38    9.38    9.38    9.38    9.38    9.46    9.56    9.64    9.72    9.79    9.85    9.91    9.97   10.03   10.08   10.12   10.14   10.15   10.12   10.05   10.08   10.10
  12     9.09    9.17    9.27    9.38    9.38    9.38    9.38    9.38    9.38    9.49    9.58    9.64    9.70    9.76    9.82    9.87    9.93    9.98   10.02   10.05   10.05   10.04    9.98   10.01   10.03
  13     8.72    8.96    9.13    9.29    9.38    9.38    9.38    9.38    9.38    9.45    9.50    9.54    9.59    9.64    9.69    9.75    9.80    9.86    9.90    9.93    9.95    9.94    9.89    9.92    9.94
  14     8.53    8.73    8.95    9.18    9.38    9.38    9.38    9.38    9.38    9.39    9.40    9.42    9.45    9.50    9.55    9.60    9.66    9.71    9.76    9.80    9.82    9.82    9.79    9.83    9.84
  15     8.29    8.35    8.69    9.02    9.37    9.38    9.38    9.38    9.38    9.30    9.26    9.26    9.28    9.32    9.37    9.42    9.48    9.53    9.59    9.64    9.65    9.63    9.68    9.72    9.74
  16     8.01    8.05    8.31    8.64    9.01    9.36    9.37    9.37    9.37    9.12    9.02    9.02    9.05    9.10    9.15    9.21    9.27    9.32    9.38    9.43    9.43    9.50    9.55    9.59    9.61
  17     7.69    7.71    7.78    8.08    8.34    8.63    8.76    8.81    8.81    8.70    8.66    8.66    8.72    8.79    8.86    8.91    8.98    8.99    9.10    9.19    9.28    9.35    9.41    9.45    9.47
  18     7.32    7.34    7.38    7.43    7.49    7.57    7.90    8.01    8.06    8.08    8.12    8.19    8.28    8.38    8.47    8.48    8.62    8.77    8.90    9.01    9.10    9.18    9.25    9.28    9.30
  19     6.92    6.93    6.94    6.96    6.98    7.00    7.04    7.08    7.15    7.26    7.41    7.57    7.72    7.87    8.03    8.18    8.35    8.52    8.67    8.80    8.91    8.99    9.06    9.10    9.12
  20     6.49    6.49    6.48    6.47    6.46    6.45    6.44    6.45    6.52    6.67    6.87    7.07    7.27    7.46    7.65    7.83    8.03    8.23    8.40    8.55    8.68    8.78    8.85    8.91    8.93
  21     6.03    6.02    6.00    5.97    5.92    5.86    5.80    5.76    5.80    6.01    6.29    6.55    6.80    7.04    7.26    7.47    7.70    7.93    8.13    8.30    8.44    8.56    8.64    8.70    8.73
  22     5.57    5.55    5.51    5.45    5.37    5.26    5.13    4.98    4.86    5.25    5.69    6.05    6.35    6.64    6.89    7.12    7.38    7.63    7.84    8.04    8.20    8.33    8.42    8.49    8.52
  23     5.10    5.07    5.01    4.93    4.81    4.66    4.44    4.08    3.14    4.38    5.08    5.58    5.95    6.28    6.57    6.83    7.09    7.35    7.57    7.77    7.95    8.09    8.20    8.28    8.31
  24     4.64    4.60    4.53    4.44    4.30    4.12    3.86    3.48    2.67    3.81    4.57    5.14    5.57    5.94    6.26    6.54    6.82    7.10    7.34    7.54    7.71    7.86    7.98    8.06    8.10
  25     4.19    4.15    4.08    3.98    3.84    3.65    3.40    3.05    2.39    3.42    4.18    4.77    5.23    5.62    5.96    6.27    6.57    6.86    7.12    7.33    7.51    7.65    7.77    7.86    7.90
  26     3.75    3.71    3.64    3.54    3.40    3.22    3.00    2.71    2.17    3.12    3.86    4.45    4.92    5.33    5.69    6.01    6.33    6.64    6.91    7.13    7.32    7.47    7.57    7.66    7.71
  27     3.32    3.28    3.21    3.11    2.98    2.82    2.63    2.40    1.98    2.87    3.59    4.18    4.65    5.07    5.44    5.77    6.11    6.43    6.71    6.94    7.14    7.29    7.40    7.48    7.53
  28     2.91    2.87    2.79    2.68    2.55    2.42    2.27    2.11    1.80    2.65    3.35    3.93    4.41    4.84    5.22    5.56    5.90    6.23    6.52    6.76    6.97    7.12    7.24    7.32    7.37
  29     2.51    2.46    2.38    2.25    2.12    2.00    1.90    1.82    1.62    2.44    3.13    3.72    4.20    4.63    5.02    5.36    5.71    6.05    6.35    6.60    6.81    6.97    7.09    7.17    7.22
  30     2.14    2.08    1.97    1.82    1.65    1.53    1.50    1.51    1.45    2.24    2.93    3.52    4.01    4.45    4.84    5.18    5.54    5.89    6.19    6.45    6.66    6.83    6.96    7.04    7.08
  31     1.81    1.73    1.59    1.37    1.12    0.94    1.02    1.17    1.27    2.05    2.73    3.34    3.86    4.29    4.68    5.03    5.39    5.74    6.05    6.31    6.53    6.70    6.83    6.92    6.96
  32     1.52    1.43    1.25    0.94    0.52    0.09    0.45    0.83    1.09    1.87    2.55    3.17    3.71    4.15    4.54    4.89    5.26    5.61    5.92    6.19    6.41    6.59    6.72    6.81    6.86
  33     1.31    1.21    1.00    0.62   -0.05   -1.16   -0.09    0.56    0.95    1.73    2.40    3.01    3.56    4.03    4.42    4.77    5.14    5.50    5.81    6.09    6.31    6.49    6.63    6.72    6.77
  34     1.16    1.08    0.90    0.60    0.19   -0.22    0.16    0.56    0.86    1.62    2.27    2.87    3.42    3.91    4.32    4.67    5.04    5.40    5.72    6.00    6.23    6.41    6.54    6.64    6.68
  35     1.09    1.02    0.89    0.69    0.47    0.32    0.44    0.64    0.81    1.54    2.18    2.76    3.30    3.79    4.22    4.59    4.95    5.31    5.63    5.92    6.16    6.34    6.48    6.57    6.61
  36     1.05    1.01    0.91    0.79    0.67    0.59    0.63    0.71    0.76    1.47    2.10    2.68    3.20    3.68    4.11    4.49    4.88    5.25    5.57    5.86    6.09    6.28    6.42    6.51    6.56
  37     1.05    1.01    0.95    0.87    0.79    0.74    0.73    0.75    0.70    1.42    2.04    2.61    3.13    3.61    4.03    4.42    4.81    5.19    5.52    5.80    6.04    6.23    6.37    6.46    6.51
  38     1.05    1.03    0.98    0.93    0.87    0.82    0.79    0.76    0.64    1.37    1.98    2.55    3.07    3.55    3.98    4.36    4.76    5.14    5.48    5.76    6.00    6.19    6.33    6.43    6.47
  39     1.06    1.04    1.01    0.96    0.91    0.86    0.81    0.75    0.58    1.33    1.95    2.52    3.04    3.51    3.94    4.33    4.72    5.11    5.45    5.74    5.98    6.17    6.31    6.40    6.45
  40     1.07    1.05    1.02    0.98    0.93    0.88    0.82    0.74    0.53    1.30    1.93    2.50    3.02    3.49    3.92    4.31    4.71    5.10    5.43    5.72    5.96    6.15    6.30    6.39    6.44
1
  HEAD IN LAYER   3 AT END OF TIME STEP   1 IN STRESS PERIOD    1
  ---------------------------------------------------------------------------

           1       2       3       4       5       6       7       8       9      10      11      12      13      14      15      16      17      18      19      20      21      22      23      24      25
 ...........................................................................................................................................................................................................
   1     9.53    9.52    9.51    9.50    9.49    9.50    9.52    9.56    9.61    9.66    9.71    9.76    9.81    9.86    9.92    9.98   10.06   10.14   10.22   10.29   10.33   10.39   10.44   10.48   10.50
   2     9.51    9.50    9.48    9.46    9.46    9.46    9.48    9.53    9.58    9.64    9.69    9.74    9.79    9.84    9.90    9.96   10.04   10.13   10.21   10.28   10.34   10.40   10.45   10.48   10.49
   3     9.48    9.46    9.43    9.39    9.38    9.38    9.41    9.47    9.54    9.60    9.66    9.71    9.76    9.80    9.86    9.93   10.01   10.11   10.19   10.27   10.33   10.39   10.44   10.46   10.47
   4     9.43    9.40    9.35    9.29    9.29    9.29    9.30    9.41    9.49    9.55    9.61    9.66    9.70    9.74    9.78    9.86    9.97   10.07   10.17   10.25   10.31   10.37   10.41   10.44   10.44
   5     9.38    9.35    9.28    9.28    9.28    9.28    9.28    9.38    9.45    9.52    9.57    9.61    9.64    9.66    9.66    9.78    9.91   10.03   10.13   10.22   10.29   10.34   10.38   10.40   10.41
   6     9.34    9.31    9.26    9.26    9.26    9.26    9.27    9.35    9.42    9.48    9.53    9.56    9.59    9.57    9.45    9.69    9.85    9.99   10.10   10.18   10.25   10.30   10.34   10.36   10.37
   7     9.31    9.28    9.24    9.24    9.24    9.24    9.25    9.32    9.39    9.45    9.50    9.53    9.56    9.58    9.59    9.70    9.83    9.96   10.06   10.14   10.21   10.26   10.29   10.30   10.32
   8     9.27    9.25    9.21    9.22    9.22    9.22    9.22    9.29    9.35    9.41    9.46    9.50    9.54    9.59    9.63    9.71    9.82    9.93   10.02   10.10   10.16   10.21   10.24   10.26   10.28
   9     9.22    9.20    9.18    9.19    9.19    9.19    9.20    9.24    9.31    9.37    9.42    9.47    9.52    9.57    9.63    9.70    9.79    9.89    9.97   10.05   10.11   10.15   10.17   10.21   10.23
  10     9.15    9.15    9.15    9.15    9.16    9.17    9.17    9.18    9.25    9.31    9.37    9.43    9.48    9.54    9.60    9.66    9.75    9.84    9.92    9.99   10.05   10.09   10.11   10.15   10.17
  11     9.06    9.07    9.09    9.11    9.11    9.13    9.13    9.14    9.19    9.25    9.31    9.37    9.42    9.48    9.54    9.61    9.68    9.77    9.85    9.92    9.98   10.02   10.05   10.08   10.10
  12     8.93    8.96    9.00    9.05    9.06    9.07    9.09    9.10    9.11    9.18    9.24    9.29    9.34    9.40    9.46    9.53    9.60    9.69    9.77    9.84    9.90    9.94    9.97   10.01   10.03
  13     8.71    8.79    8.87    8.94    9.00    9.01    9.03    9.04    9.06    9.11    9.15    9.20    9.24    9.30    9.36    9.43    9.51    9.59    9.67    9.74    9.81    9.86    9.89    9.92    9.94
  14     8.52    8.60    8.70    8.81    8.91    8.93    8.94    8.96    8.98    9.01    9.04    9.08    9.12    9.17    9.24    9.31    9.39    9.48    9.56    9.64    9.70    9.76    9.79    9.83    9.84
  15     8.29    8.34    8.48    8.64    8.82    8.83    8.84    8.86    8.88    8.87    8.89    8.93    8.96    9.02    9.09    9.16    9.25    9.34    9.43    9.51    9.58    9.63    9.68    9.72    9.74
  16     8.01    8.05    8.16    8.33    8.53    8.71    8.73    8.74    8.77    8.68    8.67    8.71    8.77    8.84    8.92    9.00    9.09    9.19    9.28    9.36    9.43    9.50    9.55    9.59    9.61
  17     7.69    7.71    7.77    7.91    8.06    8.22    8.29    8.33    8.36    8.34    8.36    8.41    8.50    8.59    8.68    8.77    8.88    8.99    9.10    9.19    9.27    9.35    9.41    9.45    9.47
  18     7.32    7.34    7.37    7.42    7.48    7.55    7.68    7.75    7.81    7.86    7.95    8.04    8.15    8.26    8.38    8.48    8.62    8.77    8.90    9.01    9.10    9.18    9.25    9.28    9.30
  19     6.92    6.92    6.94    6.96    6.98    7.00    7.03    7.07    7.15    7.26    7.40    7.56    7.71    7.87    8.02    8.17    8.35    8.52    8.67    8.80    8.91    8.99    9.06    9.10    9.12
  20     6.49    6.48    6.48    6.47    6.46    6.44    6.44    6.45    6.52    6.67    6.86    7.07    7.27    7.46    7.65    7.83    8.03    8.23    8.40    8.55    8.68    8.78    8.85    8.90    8.93
  21     6.03    6.02    6.00    5.97    5.92    5.86    5.80    5.76    5.80    6.01    6.29    6.55    6.80    7.04    7.26    7.47    7.70    7.93    8.13    8.30    8.44    8.55    8.64    8.70    8.73
  22     5.57    5.55    5.51    5.45    5.37    5.26    5.13    4.97    4.86    5.25    5.69    6.05    6.35    6.64    6.89    7.12    7.37    7.62    7.84    8.04    8.20    8.32    8.42    8.49    8.52
  23     5.10    5.07    5.01    4.93    4.81    4.66    4.44    4.08    3.26    4.38    5.08    5.58    5.95    6.28    6.57    6.82    7.08    7.35    7.57    7.77    7.95    8.09    8.20    8.27    8.31
  24     4.64    4.60    4.53    4.43    4.30    4.12    3.86    3.48    2.76    3.81    4.57    5.14    5.57    5.94    6.26    6.54    6.82    7.10    7.34    7.54    7.71    7.86    7.98    8.06    8.10
  25     4.18    4.15    4.08    3.98    3.84    3.65    3.40    3.06    2.46    3.42    4.18    4.77    5.23    5.62    5.96    6.26    6.57    6.86    7.12    7.33    7.51    7.65    7.77    7.85    7.90
  26     3.74    3.71    3.64    3.54    3.40    3.22    3.00    2.71    2.23    3.12    3.86    4.45    4.92    5.33    5.69    6.01    6.33    6.64    6.91    7.13    7.32    7.46    7.57    7.66    7.71
  27     3.32    3.28    3.21    3.11    2.97    2.82    2.63    2.40    2.03    2.87    3.59    4.17    4.65    5.07    5.44    5.77    6.10    6.43    6.71    6.94    7.14    7.29    7.40    7.48    7.53
  28     2.90    2.86    2.79    2.68    2.55    2.42    2.27    2.11    1.85    2.65    3.35    3.93    4.41    4.84    5.22    5.55    5.90    6.23    6.52    6.76    6.96    7.12    7.24    7.32    7.37
  29     2.51    2.46    2.37    2.25    2.12    2.00    1.90    1.82    1.66    2.44    3.13    3.72    4.20    4.63    5.01    5.36    5.71    6.05    6.35    6.60    6.81    6.97    7.09    7.17    7.22
  30     2.14    2.08    1.97    1.82    1.65    1.52    1.49    1.51    1.48    2.24    2.93    3.52    4.01    4.45    4.83    5.18    5.54    5.89    6.19    6.45    6.66    6.83    6.96    7.04    7.08
  31     1.80    1.73    1.58    1.37    1.12    0.94    1.02    1.17    1.29    2.05    2.72    3.34    3.85    4.29    4.68    5.03    5.39    5.74    6.05    6.31    6.53    6.70    6.83    6.92    6.96
  32     1.52    1.43    1.24    0.94    0.51    0.08    0.45    0.82    1.11    1.87    2.55    3.17    3.70    4.14    4.54    4.89    5.25    5.61    5.92    6.19    6.41    6.59    6.72    6.81    6.86
  33     1.30    1.21    1.00    0.62   -0.06   -1.24   -0.10    0.55    0.96    1.72    2.40    3.01    3.56    4.03    4.42    4.77    5.14    5.50    5.81    6.09    6.31    6.49    6.62    6.72    6.76
  34     1.16    1.08    0.90    0.60    0.19   -0.23    0.16    0.56    0.88    1.62    2.27    2.87    3.42    3.91    4.32    4.67    5.04    5.40    5.72    6.00    6.23    6.40    6.54    6.64    6.68
  35     1.09    1.02    0.89    0.69    0.47    0.32    0.44    0.64    0.83    1.54    2.18    2.76    3.30    3.78    4.22    4.59    4.95    5.31    5.63    5.92    6.15    6.34    6.47    6.57    6.61
  36     1.05    1.00    0.91    0.79    0.67    0.59    0.62    0.71    0.78    1.47    2.10    2.67    3.20    3.68    4.11    4.49    4.87    5.24    5.57    5.86    6.09    6.28    6.42    6.51    6.55
  37     1.05    1.01    0.95    0.87    0.79    0.74    0.73    0.75    0.73    1.42    2.03    2.60    3.13    3.61    4.03    4.42    4.81    5.19    5.52    5.80    6.04    6.23    6.37    6.46    6.51
  38     1.05    1.03    0.98    0.92    0.87    0.82    0.79    0.76    0.68    1.37    1.98    2.55    3.07    3.55    3.98    4.36    4.76    5.14    5.48    5.76    6.00    6.19    6.33    6.42    6.47
  39     1.06    1.04    1.00    0.96    0.91    0.86    0.81    0.75    0.62    1.33    1.95    2.51    3.04    3.51    3.94    4.32    4.72    5.11    5.45    5.74    5.97    6.16    6.31    6.40    6.45
  40     1.06    1.05    1.02    0.97    0.93    0.88    0.82    0.74    0.57    1.30    1.93    2.50    3.02    3.49    3.92    4.31    4.70    5.09    5.43    5.72    5.96    6.15    6.29    6.39    6.44
1
  HEAD IN LAYER   4 AT END OF TIME STEP   1 IN STRESS PERIOD    1
  ---------------------------------------------------------------------------

           1       2       3       4       5       6       7       8       9      10      11      12      13      14      15      16      17      18      19      20      21      22      23      24      25
 ...........................................................................................................................................................................................................
   1     9.26    9.26    9.26    9.26    9.26    9.26    9.27    9.28    9.30    9.32    9.35    9.38    9.41    9.45    9.50    9.57    9.67    9.79    9.93   10.10   10.32   10.39   10.44   10.48   10.50
   2     9.25    9.25    9.25    9.25    9.25    9.25    9.26    9.27    9.29    9.31    9.33    9.36    9.39    9.42    9.47    9.54    9.65    9.78    9.91   10.05   10.20   10.30   10.37   10.43   10.49
   3     9.24    9.23    9.23    9.23    9.22    9.23    9.23    9.24    9.26    9.28    9.30    9.32    9.34    9.37    9.41    9.48    9.60    9.74    9.88   10.01   10.12   10.23   10.32   10.39   10.47
   4     9.21    9.21    9.20    9.20    9.20    9.20    9.21    9.22    9.23    9.25    9.26    9.27    9.28    9.28    9.29    9.39    9.53    9.69    9.84    9.97   10.08   10.18   10.27   10.36   10.44
   5     9.18    9.18    9.17    9.17    9.17    9.17    9.18    9.19    9.20    9.21    9.22    9.22    9.20    9.15    9.10    9.25    9.45    9.64    9.79    9.93   10.05   10.15   10.23   10.32   10.40
   6     9.14    9.14    9.14    9.14    9.14    9.14    9.15    9.16    9.17    9.18    9.18    9.17    9.13    9.01    8.71    9.11    9.38    9.59    9.76    9.89   10.01   10.12   10.21   10.29   10.36
   7     9.10    9.10    9.10    9.10    9.11    9.11    9.11    9.12    9.13    9.14    9.15    9.15    9.13    9.08    9.03    9.18    9.38    9.57    9.73    9.86    9.98   10.09   10.19   10.30   10.32
   8     9.05    9.05    9.05    9.05    9.06    9.06    9.07    9.08    9.09    9.11    9.12    9.13    9.13    9.13    9.16    9.25    9.39    9.55    9.70    9.83    9.95   10.06   10.17   10.25   10.28
   9     8.99    8.99    8.99    8.99    9.00    9.01    9.01    9.03    9.04    9.06    9.08    9.10    9.13    9.15    9.20    9.28    9.40    9.54    9.67    9.79    9.91   10.03   10.17   10.21   10.22
  10     8.92    8.92    8.92    8.92    8.94    8.95    8.96    8.97    8.99    9.01    9.04    9.07    9.10    9.14    9.20    9.27    9.38    9.51    9.63    9.75    9.87    9.98   10.11   10.15   10.17
  11     8.84    8.83    8.83    8.84    8.85    8.87    8.89    8.90    8.92    8.95    8.98    9.02    9.06    9.11    9.16    9.24    9.34    9.46    9.58    9.69    9.81    9.92   10.04   10.08   10.10
  12     8.76    8.74    8.73    8.73    8.74    8.77    8.80    8.82    8.84    8.87    8.90    8.94    8.99    9.04    9.11    9.18    9.28    9.40    9.52    9.63    9.74    9.85    9.97   10.00   10.02
  13     8.70    8.62    8.60    8.60    8.61    8.64    8.68    8.71    8.74    8.77    8.80    8.85    8.90    8.96    9.03    9.10    9.21    9.33    9.44    9.56    9.67    9.77    9.89    9.92    9.94
  14     8.52    8.48    8.45    8.45    8.45    8.47    8.50    8.54    8.58    8.63    8.68    8.73    8.79    8.85    8.93    9.01    9.12    9.24    9.36    9.47    9.58    9.69    9.79    9.82    9.84
  15     8.29    8.32    8.27    8.26    8.27    8.28    8.31    8.34    8.39    8.45    8.52    8.59    8.65    8.73    8.81    8.90    9.02    9.15    9.27    9.39    9.50    9.62    9.68    9.71    9.74
  16     8.01    8.04    8.02    8.03    8.04    8.07    8.08    8.11    8.17    8.23    8.31    8.40    8.49    8.58    8.68    8.78    8.91    9.06    9.18    9.29    9.42    9.49    9.55    9.59    9.61
  17     7.69    7.71    7.76    7.74    7.77    7.80    7.82    7.85    7.90    7.98    8.07    8.16    8.27    8.39    8.50    8.63    8.78    8.98    9.09    9.19    9.27    9.35    9.41    9.45    9.47
  18     7.32    7.34    7.37    7.42    7.47    7.53    7.47    7.49    7.56    7.65    7.77    7.88    8.01    8.14    8.29    8.47    8.62    8.77    8.90    9.01    9.10    9.18    9.24    9.28    9.30
  19     6.92    6.92    6.94    6.95    6.97    7.00    7.02    7.06    7.14    7.25    7.39    7.55    7.71    7.86    8.02    8.17    8.34    8.52    8.67    8.80    8.90    8.99    9.05    9.10    9.12
  20     6.48    6.48    6.48    6.47    6.46    6.44    6.43    6.45    6.52    6.67    6.86    7.07    7.26    7.46    7.65    7.83    8.03    8.23    8.40    8.55    8.68    8.78    8.85    8.90    8.93
  21     6.03    6.02    6.00    5.96    5.92    5.86    5.80    5.76    5.80    6.01    6.29    6.55    6.80    7.03    7.26    7.47    7.70    7.93    8.13    8.30    8.44    8.55    8.64    8.70    8.73
  22     5.57    5.55    5.51    5.45    5.36    5.26    5.12    4.97    4.86    5.25    5.68    6.05    6.35    6.63    6.89    7.12    7.37    7.62    7.84    8.03    8.19    8.32    8.42    8.49    8.52
  23     5.10    5.07    5.01    4.93    4.81    4.66    4.44    4.09    3.39    4.39    5.08    5.58    5.95    6.28    6.57    6.82    7.08    7.34    7.57    7.77    7.94    8.09    8.20    8.27    8.31
  24     4.63    4.60    4.53    4.43    4.30    4.12    3.86    3.49    2.86    3.82    4.57    5.14    5.57    5.94    6.25    6.53    6.82    7.10    7.34    7.54    7.71    7.86    7.98    8.06    8.10
  25     4.18    4.15    4.08    3.98    3.84    3.65    3.40    3.06    2.54    3.43    4.18    4.77    5.22    5.62    5.96    6.26    6.57    6.86    7.12    7.33    7.51    7.65    7.76    7.85    7.90
  26     3.74    3.71    3.64    3.53    3.40    3.22    3.00    2.71    2.30    3.13    3.86    4.45    4.92    5.33    5.69    6.00    6.33    6.64    6.90    7.13    7.32    7.46    7.57    7.65    7.70
  27     3.32    3.28    3.21    3.10    2.97    2.81    2.63    2.40    2.09    2.87    3.58    4.17    4.65    5.07    5.44    5.77    6.10    6.43    6.70    6.94    7.13    7.29    7.40    7.48    7.53
  28     2.90    2.86    2.79    2.68    2.55    2.41    2.27    2.11    1.90    2.65    3.35    3.93    4.41    4.84    5.22    5.55    5.90    6.23    6.52    6.76    6.96    7.12    7.24    7.32    7.36
  29     2.51    2.46    2.37    2.25    2.12    1.99    1.90    1.82    1.71    2.44    3.13    3.71    4.20    4.63    5.01    5.35    5.71    6.05    6.35    6.60    6.80    6.97    7.09    7.17    7.22
  30     2.14    2.08    1.97    1.82    1.65    1.52    1.49    1.51    1.52    2.24    2.93    3.52    4.01    4.44    4.83    5.18    5.54    5.89    6.19    6.45    6.66    6.83    6.95    7.04    7.08
  31     1.80    1.73    1.58    1.37    1.12    0.93    1.01    1.17    1.32    2.05    2.72    3.34    3.85    4.28    4.67    5.02    5.39    5.74    6.05    6.31    6.53    6.70    6.83    6.92    6.96
  32     1.52    1.43    1.24    0.94    0.51    0.07    0.44    0.82    1.13    1.87    2.55    3.17    3.70    4.14    4.54    4.89    5.25    5.61    5.92    6.19    6.41    6.59    6.72    6.81    6.86
  33     1.30    1.21    0.99    0.62   -0.07   -1.33   -0.11    0.55    0.98    1.72    2.39    3.01    3.56    4.03    4.42    4.77    5.13    5.50    5.81    6.08    6.31    6.49    6.62    6.72    6.76
  34     1.16    1.07    0.89    0.60    0.18   -0.24    0.16    0.56    0.90    1.62    2.27    2.87    3.41    3.91    4.32    4.67    5.03    5.40    5.72    6.00    6.22    6.40    6.54    6.64    6.68
  35     1.08    1.02    0.88    0.69    0.47    0.31    0.44    0.64    0.85    1.54    2.17    2.76    3.30    3.78    4.22    4.58    4.95    5.31    5.63    5.92    6.15    6.34    6.47    6.57    6.61
  36     1.05    1.00    0.91    0.79    0.66    0.59    0.62    0.71    0.81    1.47    2.10    2.67    3.20    3.68    4.11    4.49    4.87    5.24    5.57    5.85    6.09    6.28    6.41    6.51    6.55
  37     1.04    1.01    0.95    0.87    0.79    0.74    0.73    0.75    0.76    1.42    2.03    2.60    3.13    3.60    4.03    4.41    4.80    5.18    5.52    5.80    6.04    6.23    6.37    6.46    6.51
  38     1.05    1.02    0.98    0.92    0.86    0.82    0.78    0.76    0.71    1.37    1.98    2.55    3.07    3.55    3.97    4.36    4.75    5.14    5.47    5.76    6.00    6.19    6.33    6.42    6.47
  39     1.06    1.04    1.00    0.96    0.91    0.86    0.81    0.75    0.66    1.33    1.94    2.51    3.03    3.51    3.94    4.32    4.72    5.11    5.45    5.73    5.97    6.16    6.30    6.40    6.45
  40     1.06    1.05    1.01    0.97    0.93    0.87    0.82    0.75    0.62    1.30    1.92    2.49    3.02    3.49    3.92    4.30    4.70    5.09    5.43    5.72    5.96    6.15    6.29    6.39    6.43
1
  HEAD IN LAYER   5 AT END OF TIME STEP   1 IN STRESS PERIOD    1
  ---------------------------------------------------------------------------

           1       2       3       4       5       6       7       8       9      10      11      12      13      14      15      16      17      18      19      20      21      22      23      24      25
 ...........................................................................................................................................................................................................
   1     9.26    9.26    9.26    9.26    9.26    9.26    9.27    9.28    9.30    9.32    9.35    9.37    9.41    9.45    9.50    9.57    9.67    9.79    9.93   10.10   10.31   10.38   10.44   10.48   10.50
   2     9.25    9.25    9.25    9.25    9.24    9.25    9.25    9.27    9.28    9.31    9.33    9.36    9.38    9.42    9.47    9.54    9.65    9.78    9.91   10.05   10.20   10.30   10.37   10.43   10.48
   3     9.23    9.23    9.23    9.23    9.22    9.22    9.23    9.24    9.26    9.28    9.30    9.32    9.34    9.36    9.41    9.48    9.60    9.74    9.88   10.01   10.12   10.23   10.32   10.39   10.46
   4     9.21    9.21    9.20    9.20    9.20    9.20    9.21    9.22    9.23    9.24    9.26    9.27    9.27    9.27    9.29    9.38    9.53    9.69    9.84    9.97   10.08   10.18   10.27   10.36   10.43
   5     9.18    9.17    9.17    9.17    9.17    9.17    9.18    9.19    9.20    9.21    9.22    9.21    9.20    9.15    9.09    9.25    9.44    9.63    9.79    9.93   10.05   10.15   10.23   10.32   10.40
   6     9.14    9.14    9.14    9.14    9.14    9.14    9.15    9.16    9.17    9.18    9.18    9.17    9.13    9.01    8.63    9.10    9.37    9.59    9.75    9.89   10.01   10.12   10.21   10.29   10.36
   7     9.10    9.09    9.10    9.10    9.11    9.11    9.11    9.12    9.13    9.14    9.15    9.15    9.13    9.08    9.02    9.18    9.38    9.57    9.72    9.86    9.98   10.09   10.19   10.29   10.32
   8     9.04    9.04    9.05    9.05    9.06    9.06    9.07    9.07    9.09    9.10    9.12    9.13    9.13    9.13    9.15    9.25    9.39    9.55    9.70    9.83    9.95   10.06   10.17   10.25   10.27
   9     8.98    8.98    8.99    8.99    9.00    9.01    9.01    9.02    9.04    9.06    9.08    9.10    9.12    9.15    9.20    9.27    9.39    9.53    9.67    9.79    9.91   10.03   10.16   10.21   10.22
  10     8.91    8.91    8.91    8.92    8.93    8.95    8.95    8.97    8.99    9.01    9.04    9.07    9.10    9.14    9.20    9.27    9.38    9.50    9.63    9.75    9.87    9.98   10.10   10.15   10.17
  11     8.84    8.83    8.83    8.83    8.85    8.87    8.88    8.90    8.92    8.95    8.98    9.01    9.05    9.10    9.16    9.23    9.34    9.46    9.58    9.69    9.81    9.92   10.04   10.08   10.10
  12     8.75    8.74    8.73    8.73    8.74    8.77    8.80    8.82    8.84    8.87    8.90    8.94    8.99    9.04    9.10    9.18    9.28    9.40    9.52    9.63    9.74    9.85    9.97   10.00   10.02
  13     8.67    8.62    8.60    8.60    8.61    8.63    8.67    8.70    8.74    8.77    8.80    8.84    8.90    8.96    9.03    9.10    9.21    9.33    9.44    9.56    9.67    9.77    9.88    9.92    9.94
  14     8.50    8.47    8.45    8.44    8.45    8.47    8.50    8.53    8.58    8.63    8.68    8.73    8.78    8.85    8.93    9.01    9.12    9.24    9.36    9.47    9.58    9.69    9.79    9.82    9.84
  15     8.28    8.29    8.26    8.26    8.26    8.28    8.30    8.33    8.39    8.45    8.52    8.59    8.65    8.73    8.81    8.90    9.02    9.15    9.27    9.39    9.50    9.62    9.68    9.71    9.74
  16     8.00    8.02    8.01    8.02    8.04    8.06    8.08    8.11    8.16    8.23    8.31    8.40    8.49    8.58    8.68    8.78    8.91    9.06    9.18    9.29    9.42    9.49    9.55    9.59    9.61
  17     7.68    7.70    7.74    7.74    7.77    7.80    7.81    7.84    7.90    7.98    8.07    8.16    8.27    8.38    8.50    8.63    8.78    8.97    9.09    9.18    9.27    9.35    9.41    9.45    9.46
  18     7.31    7.33    7.36    7.40    7.44    7.48    7.46    7.49    7.55    7.65    7.76    7.88    8.01    8.14    8.29    8.45    8.61    8.76    8.89    9.01    9.10    9.18    9.24    9.28    9.30
  19     6.91    6.92    6.93    6.95    6.96    6.98    7.00    7.04    7.12    7.23    7.38    7.54    7.70    7.85    8.01    8.16    8.34    8.51    8.66    8.79    8.90    8.99    9.05    9.10    9.12
  20     6.48    6.48    6.47    6.46    6.45    6.44    6.43    6.44    6.51    6.66    6.86    7.06    7.26    7.46    7.64    7.82    8.02    8.23    8.40    8.55    8.67    8.77    8.85    8.90    8.93
  21     6.03    6.02    5.99    5.96    5.91    5.85    5.79    5.75    5.79    6.00    6.28    6.54    6.79    7.03    7.25    7.46    7.70    7.93    8.12    8.30    8.44    8.55    8.64    8.70    8.73
  22     5.56    5.54    5.50    5.44    5.36    5.25    5.12    4.97    4.88    5.25    5.68    6.04    6.35    6.63    6.89    7.11    7.37    7.62    7.84    8.03    8.19    8.32    8.42    8.49    8.52
  23     5.09    5.06    5.00    4.92    4.81    4.65    4.43    4.12    3.63    4.40    5.07    5.57    5.95    6.27    6.56    6.81    7.08    7.34    7.57    7.77    7.94    8.09    8.20    8.27    8.31
  24     4.63    4.60    4.52    4.43    4.29    4.11    3.86    3.51    3.04    3.83    4.57    5.14    5.57    5.93    6.25    6.53    6.82    7.10    7.34    7.54    7.71    7.86    7.98    8.06    8.10
  25     4.18    4.14    4.07    3.97    3.83    3.64    3.40    3.08    2.70    3.44    4.18    4.77    5.22    5.62    5.96    6.25    6.56    6.86    7.12    7.33    7.51    7.65    7.76    7.85    7.90
  26     3.74    3.70    3.63    3.53    3.39    3.21    2.99    2.73    2.43    3.13    3.85    4.45    4.92    5.33    5.69    6.00    6.32    6.64    6.90    7.13    7.32    7.46    7.57    7.65    7.70
  27     3.31    3.27    3.20    3.10    2.97    2.81    2.63    2.42    2.20    2.88    3.58    4.17    4.65    5.07    5.44    5.76    6.10    6.42    6.70    6.94    7.13    7.29    7.40    7.48    7.52
  28     2.90    2.86    2.78    2.67    2.55    2.41    2.27    2.12    1.99    2.65    3.34    3.93    4.41    4.83    5.21    5.54    5.89    6.23    6.52    6.76    6.96    7.12    7.24    7.32    7.36
  29     2.50    2.46    2.37    2.25    2.11    1.99    1.90    1.82    1.79    2.45    3.13    3.71    4.19    4.63    5.01    5.35    5.70    6.05    6.34    6.60    6.80    6.97    7.09    7.17    7.22
  30     2.13    2.07    1.96    1.81    1.64    1.52    1.49    1.51    1.58    2.24    2.92    3.52    4.01    4.44    4.83    5.17    5.53    5.88    6.19    6.44    6.66    6.83    6.95    7.04    7.08
  31     1.80    1.72    1.58    1.36    1.11    0.92    1.01    1.17    1.37    2.05    2.72    3.34    3.85    4.28    4.67    5.01    5.38    5.74    6.05    6.31    6.53    6.70    6.83    6.91    6.96
  32     1.51    1.42    1.24    0.93    0.49    0.01    0.43    0.82    1.17    1.87    2.54    3.17    3.70    4.14    4.53    4.88    5.25    5.61    5.92    6.19    6.41    6.59    6.72    6.81    6.85
  33     1.30    1.20    0.99    0.61   -0.14   -2.08   -0.18    0.54    1.01    1.72    2.39    3.00    3.56    4.02    4.41    4.76    5.13    5.49    5.81    6.08    6.31    6.49    6.62    6.72    6.76
  34     1.16    1.07    0.89    0.59    0.17   -0.30    0.14    0.55    0.93    1.62    2.27    2.87    3.41    3.90    4.32    4.66    5.03    5.39    5.72    5.99    6.22    6.40    6.54    6.63    6.68
  35     1.08    1.01    0.88    0.68    0.46    0.30    0.43    0.64    0.89    1.54    2.17    2.76    3.29    3.78    4.21    4.57    4.94    5.30    5.63    5.92    6.15    6.34    6.47    6.56    6.61
  36     1.05    1.00    0.91    0.78    0.66    0.58    0.62    0.71    0.86    1.48    2.09    2.67    3.20    3.68    4.11    4.48    4.87    5.24    5.57    5.85    6.09    6.27    6.41    6.51    6.55
  37     1.04    1.01    0.94    0.86    0.78    0.73    0.72    0.75    0.82    1.42    2.03    2.60    3.12    3.60    4.03    4.40    4.80    5.18    5.52    5.80    6.04    6.22    6.36    6.46    6.50
  38     1.04    1.02    0.97    0.92    0.86    0.81    0.78    0.76    0.78    1.37    1.98    2.55    3.07    3.54    3.97    4.35    4.75    5.14    5.47    5.76    6.00    6.19    6.33    6.42    6.47
  39     1.05    1.03    1.00    0.95    0.90    0.85    0.81    0.76    0.73    1.33    1.94    2.51    3.03    3.51    3.93    4.31    4.71    5.11    5.44    5.73    5.97    6.16    6.30    6.40    6.45
  40     1.06    1.04    1.01    0.97    0.92    0.87    0.82    0.75    0.70    1.31    1.92    2.49    3.01    3.49    3.91    4.29    4.70    5.09    5.43    5.72    5.96    6.15    6.29    6.39    6.43

 HEAD WILL BE SAVED ON UNIT 1028 AT END OF TIME STEP    1, STRESS PERIOD    1


  VOLUME BUDGET FOR ENTIRE MODEL AT END OF TIME STEP    1, STRESS PERIOD   1
  ---------------------------------------------------------------------------------------------------

     CUMULATIVE VOLUME      L**3       RATES FOR THIS TIME STEP      L**3/T          PACKAGE NAME    
     ------------------                 ------------------------                     ----------------

           IN:                                      IN:
           ---                                      ---
                 WEL =           0.0000                   WEL =           0.0000     WEL-1                            
                 RIV =           0.0000                   RIV =           0.0000     RIV-1                            
                 GHB =    31781817.4206                   GHB =       87073.4724     GHB-1                            
                RCHA =   310645568.7500                  RCHA =      851083.7500     RCH-1                            

            TOTAL IN =   342427386.1706              TOTAL IN =      938157.2224

          OUT:                                     OUT:
          ----                                     ----
                 WEL =   122275000.0000                   WEL =      335000.0000     WEL-1                            
                 RIV =   200954758.1526                   RIV =      550560.9812     RIV-1                            
                 GHB =    19197608.0526                   GHB =       52596.1864     GHB-1                            
                RCHA =           0.0000                  RCHA =           0.0000     RCH-1                            

           TOTAL OUT =   342427366.2053             TOTAL OUT =      938157.1677

            IN - OUT =          19.9653              IN - OUT =       5.4700E-02

 PERCENT DISCREPANCY =           0.00     PERCENT DISCREPANCY =           0.00




         TIME SUMMARY AT END OF TIME STEP    1 IN STRESS PERIOD    1
                    SECONDS     MINUTES      HOURS       DAYS        YEARS
                    -----------------------------------------------------------
   TIME STEP LENGTH 3.15360E+07 5.25600E+05  8760.0      365.00     0.99932    
 STRESS PERIOD TIME 3.15360E+07 5.25600E+05  8760.0      365.00     0.99932    
         TOTAL TIME 3.15360E+07 5.25600E+05  8760.0      365.00     0.99932    


end timestep

