                                   MODFLOW 6
                U.S. GEOLOGICAL SURVEY MODULAR HYDROLOGIC MODEL
                          GROUNDWATER FLOW MODEL (GWF)
                            VERSION 6.4.2 06/28/2023

   MODFLOW 6 compiled Jul 05 2023 20:29:14 with Intel(R) Fortran Intel(R) 64
   Compiler Classic for applications running on Intel(R) 64, Version 2021.7.0
                             Build 20220726_000000

This software has been approved for release by the U.S. Geological 
Survey (USGS). Although the software has been subjected to rigorous 
review, the USGS reserves the right to update the software as needed 
pursuant to further analysis and review. No warranty, expressed or 
implied, is made by the USGS or the U.S. Government as to the 
functionality of the software and related material nor shall the 
fact of release constitute any such warranty. Furthermore, the 
software is released on condition that neither the USGS nor the U.S. 
Government shall be held liable for any damages resulting from its 
authorized or unauthorized use. Also refer to the USGS Water 
Resources Software User Rights Notice for complete use, copyright, 
and distribution information.


As a work of the United States Government, this USGS product is 
in the public domain within the United States. You can copy, 
modify, distribute, and perform the work, even for commercial 
purposes, all without asking permission. Additionally, USGS 
waives copyright and related rights in the work worldwide 
through CC0 1.0 Universal Public Domain Dedication 
(https://creativecommons.org/publicdomain/zero/1.0/).

The following GNU Lesser General Public License (LGPL) libraries
are used in this USGS product:

    SPARSKIT version 2.0
      ilut, luson, and qsplit 
      (https://www-users.cse.umn.edu/~saad/software/SPARSKIT/)

    RCM - Reverse Cuthill McKee Ordering
      (https://people.math.sc.edu/Burkardt/f_src/rcm/rcm.html)

    BLAS - Basic Linear Algebra Subprograms Level 1
      (https://people.math.sc.edu/Burkardt/f_src/blas1_d/blas1_d.html)

    SPARSEKIT - Sparse Matrix Utility Package
      amux, dperm, dvperm, rperm, and cperm
      (https://people.sc.fsu.edu/~jburkardt/f77_src/sparsekit/sparsekit.html)

The following BSD-3 License libraries are used in this USGS product:

    Modern Fortran DAG Library
      Copyright (c) 2018, Jacob Williams
      All rights reserved.
      (https://github.com/jacobwilliams/daglib)

MODFLOW 6 compiler options: -Imac/obj_mf6 -O2 -no-heap-arrays -fpe0
-traceback -fpp -module mac/mod_mf6/ -c -o mac/obj_mf6/compilerversion.o

System command used to initiate simulation:
/Users/mnfienen/.local/share/flopy/bin/mf6

MODFLOW was compiled using uniform precision.

Real Variables
  KIND: 8
  TINY (smallest non-zero value):    2.225074-308
  HUGE (largest value):    1.797693+308
  PRECISION: 15
  SIZE IN BITS: 64

Integer Variables
  KIND: 4
  HUGE (largest value): 2147483647
  SIZE IN BITS: 32

Long Integer Variables
  KIND: 8
  HUGE (largest value): 9223372036854775807
  SIZE IN BITS: 64

Logical Variables
  KIND: 4
  SIZE IN BITS: 32
 
 NAMEFILE OPTIONS:
 END NAMEFILE OPTIONS:

 DIS -- STRUCTURED GRID DISCRETIZATION PACKAGE, VERSION 2 : 3/27/2014 - INPUT READ FROM MEMPATH: __INPUT__/PS2/DIS                                 


 NPF -- NODE PROPERTY FLOW PACKAGE, VERSION 1, 3/30/2015 INPUT READ FROM MEMPATH: __INPUT__/PS2/NPF                                 

 Setting Discretization Options
    Model length unit [0=UND, 1=FEET, 2=METERS, 3=CENTIMETERS] set as 1
    XORIGIN = .000000000000000
    YORIGIN = .000000000000000
    ANGROT = .000000000000000
 End Setting Discretization Options

 Setting Discretization Dimensions
    NLAY = 3
    NROW = 21
    NCOL = 20
 End Setting Discretization Dimensions

 Setting Discretization Griddata
    DELR set from input file
    DELC set from input file
    TOP set from input file
    BOTM set from input file
    IDOMAIN set from input file
 End Setting Discretization Griddata

 Setting NPF Options
    Cell-by-cell flow information will be saved to binary file whenever ICBCFL is not zero.
 End Setting NPF Options

 Setting NPF Griddata
    ICELLTYPE set from input file
    K set from input file
    K33 set from input file
    K22 not provided.  Setting K22 = K.
 End Setting NPF Griddata


 RIV   -- RIV PACKAGE, VERSION 8, 2/22/2014 INPUT READ FROM UNIT 1007
 # File generated by Flopy version 3.4.2 on 09/12/2023 at 13:53:44.

 PROCESSING RIV OPTIONS
    FLOWS WILL BE SAVED TO BUDGET FILE SPECIFIED IN OUTPUT CONTROL
 END OF RIV OPTIONS

 PROCESSING RIV DIMENSIONS
    MAXBOUND =      21
 END OF RIV DIMENSIONS

 RCH   -- RCH PACKAGE, VERSION 8, 2/22/2014 INPUT READ FROM UNIT 1008
 # File generated by Flopy version 3.4.2 on 09/12/2023 at 13:53:43.

 PROCESSING RCH OPTIONS
    RECHARGE INPUT WILL BE READ AS ARRAY(S).
 END OF RCHA OPTIONS

 IC -- INITIAL CONDITIONS PACKAGE, VERSION 8, 3/28/2015 INPUT READ FROM UNIT 1005
 # File generated by Flopy version 3.4.2 on 09/12/2023 at 13:53:43.
 PROCESSING GRIDDATA

     INITIAL HEAD =   320.0000     FOR LAYER 1

     INITIAL HEAD =   320.0000     FOR LAYER 2

     INITIAL HEAD =   320.0000     FOR LAYER 3
 END PROCESSING GRIDDATA
    BINARY GRID INFORMATION WILL BE WRITTEN TO:
      UNIT NUMBER: 1012
      FILE NAME: ps2.dis.grb

 OPENED ps2.dis.grb
 FILE TYPE:DATA(BINARY)   UNIT 1012   STATUS:REPLACE             
 FORMAT:UNFORMATTED            ACCESS:STREAM              
 ACTION:READWRITE           

      THE LAST TIME STEP WILL BE PRINTED
      THE LAST TIME STEP WILL BE PRINTED
 # File generated by Flopy version 3.4.2 on 09/12/2023 at 13:53:43.

 PROCESSING OC OPTIONS

    HEAD INFORMATION WILL BE WRITTEN TO:
      UNIT NUMBER: 1013
      FILE NAME: ps2.hed

 OPENED ps2.hed
 FILE TYPE:DATA(BINARY)   UNIT 1013   STATUS:REPLACE             
 FORMAT:UNFORMATTED            ACCESS:STREAM              
 ACTION:READWRITE           

 END OF OC OPTIONS

start timestep kper="1" kstp="1" mode="normal"


 BEGIN READING OUTPUT CONTROL FOR STRESS PERIOD 1
      ALL TIME STEPS WILL BE SAVED
      ALL TIME STEPS WILL BE PRINTED
      ALL TIME STEPS WILL BE PRINTED

 END READING OUTPUT CONTROL FOR STRESS PERIOD 1

                 RECHARGE =  0.5000000E-02
1
  HEAD IN LAYER   1 AT END OF TIME STEP   1 IN STRESS PERIOD    1
  ---------------------------------------------------------------------------

            1        2        3        4        5        6        7        8        9       10       11       12       13       14       15       16       17       18       19       20
 .......................................................................................................................................................................................
   1   346.268  346.193  346.042  345.813  345.500  345.100  344.606  344.007  343.295  342.454  341.468  340.316  338.974  337.410  335.584  333.449  330.943  327.984  324.468  320.250
   2   346.268  346.193  346.042  345.813  345.500  345.100  344.606  344.007  343.295  342.454  341.468  340.316  338.974  337.410  335.584  333.449  330.943  327.984  324.468  320.250
   3   346.268  346.193  346.042  345.813  345.500  345.100  344.606  344.007  343.295  342.454  341.468  340.316  338.974  337.410  335.584  333.449  330.943  327.984  324.468  320.250
   4   346.268  346.193  346.042  345.813  345.500  345.100  344.606  344.007  343.295  342.454  341.468  340.316  338.974  337.410  335.584  333.449  330.943  327.984  324.468  320.250
   5   346.268  346.193  346.042  345.813  345.500  345.100  344.606  344.007  343.295  342.454  341.468  340.316  338.974  337.410  335.584  333.449  330.943  327.984  324.468  320.250
   6   346.268  346.193  346.042  345.813  345.500  345.100  344.606  344.007  343.295  342.454  341.468  340.316  338.974  337.410  335.584  333.449  330.943  327.984  324.468  320.250
   7   346.268  346.193  346.042  345.813  345.500  345.100  344.606  344.007  343.295  342.454  341.468  340.316  338.974  337.410  335.584  333.449  330.943  327.984  324.468  320.250
   8   346.268  346.193  346.042  345.813  345.500  345.100  344.606  344.007  343.295  342.454  341.468  340.316  338.974  337.410  335.584  333.449  330.943  327.984  324.468  320.250
   9   346.268  346.193  346.042  345.813  345.500  345.100  344.606  344.007  343.295  342.454  341.468  340.316  338.974  337.410  335.584  333.449  330.943  327.984  324.468  320.250
  10   346.268  346.193  346.042  345.813  345.500  345.100  344.606  344.007  343.295  342.454  341.468  340.316  338.974  337.410  335.584  333.449  330.943  327.984  324.468  320.250
  11   346.268  346.193  346.042  345.813  345.500  345.100  344.606  344.007  343.295  342.454  341.468  340.316  338.974  337.410  335.584  333.449  330.943  327.984  324.468  320.250
  12   346.268  346.193  346.042  345.813  345.500  345.100  344.606  344.007  343.295  342.454  341.468  340.316  338.974  337.410  335.584  333.449  330.943  327.984  324.468  320.250
  13   346.268  346.193  346.042  345.813  345.500  345.100  344.606  344.007  343.295  342.454  341.468  340.316  338.974  337.410  335.584  333.449  330.943  327.984  324.468  320.250
  14   346.268  346.193  346.042  345.813  345.500  345.100  344.606  344.007  343.295  342.454  341.468  340.316  338.974  337.410  335.584  333.449  330.943  327.984  324.468  320.250
  15   346.268  346.193  346.042  345.813  345.500  345.100  344.606  344.007  343.295  342.454  341.468  340.316  338.974  337.410  335.584  333.449  330.943  327.984  324.468  320.250
  16   346.268  346.193  346.042  345.813  345.500  345.100  344.606  344.007  343.295  342.454  341.468  340.316  338.974  337.410  335.584  333.449  330.943  327.984  324.468  320.250
  17   346.268  346.193  346.042  345.813  345.500  345.100  344.606  344.007  343.295  342.454  341.468  340.316  338.974  337.410  335.584  333.449  330.943  327.984  324.468  320.250
  18   346.268  346.193  346.042  345.813  345.500  345.100  344.606  344.007  343.295  342.454  341.468  340.316  338.974  337.410  335.584  333.449  330.943  327.984  324.468  320.250
  19   346.268  346.193  346.042  345.813  345.500  345.100  344.606  344.007  343.295  342.454  341.468  340.316  338.974  337.410  335.584  333.449  330.943  327.984  324.468  320.250
  20   346.268  346.193  346.042  345.813  345.500  345.100  344.606  344.007  343.295  342.454  341.468  340.316  338.974  337.410  335.584  333.449  330.943  327.984  324.468  320.250
  21   346.268  346.193  346.042  345.813  345.500  345.100  344.606  344.007  343.295  342.454  341.468  340.316  338.974  337.410  335.584  333.449  330.943  327.984  324.468  320.250
1
  HEAD IN LAYER   2 AT END OF TIME STEP   1 IN STRESS PERIOD    1
  ---------------------------------------------------------------------------

            1        2        3        4        5        6        7        8        9       10       11       12       13       14       15       16       17       18       19       20
 .......................................................................................................................................................................................
   1   343.132  343.085  342.990  342.846  342.653  342.406  342.104  341.742  341.317  340.821  340.247  339.588  338.831  337.962  336.966  335.818  334.493  332.953  331.151  329.020
   2   343.132  343.085  342.990  342.846  342.653  342.406  342.104  341.742  341.317  340.821  340.247  339.588  338.831  337.962  336.966  335.818  334.493  332.953  331.151  329.020
   3   343.132  343.085  342.990  342.846  342.653  342.406  342.104  341.742  341.317  340.821  340.247  339.588  338.831  337.962  336.966  335.818  334.493  332.953  331.151  329.020
   4   343.132  343.085  342.990  342.846  342.653  342.406  342.104  341.742  341.317  340.821  340.247  339.588  338.831  337.962  336.966  335.818  334.493  332.953  331.151  329.020
   5   343.132  343.085  342.990  342.846  342.653  342.406  342.104  341.742  341.317  340.821  340.247  339.588  338.831  337.962  336.966  335.818  334.493  332.953  331.151  329.020
   6   343.132  343.085  342.990  342.846  342.653  342.406  342.104  341.742  341.317  340.821  340.247  339.588  338.831  337.962  336.966  335.818  334.493  332.953  331.151  329.020
   7   343.132  343.085  342.990  342.846  342.653  342.406  342.104  341.742  341.317  340.821  340.247  339.588  338.831  337.962  336.966  335.818  334.493  332.953  331.151  329.020
   8   343.132  343.085  342.990  342.846  342.653  342.406  342.104  341.742  341.317  340.821  340.247  339.588  338.831  337.962  336.966  335.818  334.493  332.953  331.151  329.020
   9   343.132  343.085  342.990  342.846  342.653  342.406  342.104  341.742  341.317  340.821  340.247  339.588  338.831  337.962  336.966  335.818  334.493  332.953  331.151  329.020
  10   343.132  343.085  342.990  342.846  342.653  342.406  342.104  341.742  341.317  340.821  340.247  339.588  338.831  337.962  336.966  335.818  334.493  332.953  331.151  329.020
  11   343.132  343.085  342.990  342.846  342.653  342.406  342.104  341.742  341.317  340.821  340.247  339.588  338.831  337.962  336.966  335.818  334.493  332.953  331.151  329.020
  12   343.132  343.085  342.990  342.846  342.653  342.406  342.104  341.742  341.317  340.821  340.247  339.588  338.831  337.962  336.966  335.818  334.493  332.953  331.151  329.020
  13   343.132  343.085  342.990  342.846  342.653  342.406  342.104  341.742  341.317  340.821  340.247  339.588  338.831  337.962  336.966  335.818  334.493  332.953  331.151  329.020
  14   343.132  343.085  342.990  342.846  342.653  342.406  342.104  341.742  341.317  340.821  340.247  339.588  338.831  337.962  336.966  335.818  334.493  332.953  331.151  329.020
  15   343.132  343.085  342.990  342.846  342.653  342.406  342.104  341.742  341.317  340.821  340.247  339.588  338.831  337.962  336.966  335.818  334.493  332.953  331.151  329.020
  16   343.132  343.085  342.990  342.846  342.653  342.406  342.104  341.742  341.317  340.821  340.247  339.588  338.831  337.962  336.966  335.818  334.493  332.953  331.151  329.020
  17   343.132  343.085  342.990  342.846  342.653  342.406  342.104  341.742  341.317  340.821  340.247  339.588  338.831  337.962  336.966  335.818  334.493  332.953  331.151  329.020
  18   343.132  343.085  342.990  342.846  342.653  342.406  342.104  341.742  341.317  340.821  340.247  339.588  338.831  337.962  336.966  335.818  334.493  332.953  331.151  329.020
  19   343.132  343.085  342.990  342.846  342.653  342.406  342.104  341.742  341.317  340.821  340.247  339.588  338.831  337.962  336.966  335.818  334.493  332.953  331.151  329.020
  20   343.132  343.085  342.990  342.846  342.653  342.406  342.104  341.742  341.317  340.821  340.247  339.588  338.831  337.962  336.966  335.818  334.493  332.953  331.151  329.020
  21   343.132  343.085  342.990  342.846  342.653  342.406  342.104  341.742  341.317  340.821  340.247  339.588  338.831  337.962  336.966  335.818  334.493  332.953  331.151  329.020
1
  HEAD IN LAYER   3 AT END OF TIME STEP   1 IN STRESS PERIOD    1
  ---------------------------------------------------------------------------

            1        2        3        4        5        6        7        8        9       10       11       12       13       14       15       16       17       18       19       20
 .......................................................................................................................................................................................
   1   340.008  339.988  339.950  339.892  339.816  339.722  339.612  339.486  339.346  339.194  339.032  338.862  338.688  338.513  338.341  338.178  338.030  337.903  337.808  337.753
   2   340.008  339.988  339.950  339.892  339.816  339.722  339.612  339.486  339.346  339.194  339.032  338.862  338.688  338.513  338.341  338.178  338.030  337.903  337.808  337.753
   3   340.008  339.988  339.950  339.892  339.816  339.722  339.612  339.486  339.346  339.194  339.032  338.862  338.688  338.513  338.341  338.178  338.030  337.903  337.808  337.753
   4   340.008  339.988  339.950  339.892  339.816  339.722  339.612  339.486  339.346  339.194  339.032  338.862  338.688  338.513  338.341  338.178  338.030  337.903  337.808  337.753
   5   340.008  339.988  339.950  339.892  339.816  339.722  339.612  339.486  339.346  339.194  339.032  338.862  338.688  338.513  338.341  338.178  338.030  337.903  337.808  337.753
   6   340.008  339.988  339.950  339.892  339.816  339.722  339.612  339.486  339.346  339.194  339.032  338.862  338.688  338.513  338.341  338.178  338.030  337.903  337.808  337.753
   7   340.008  339.988  339.950  339.892  339.816  339.722  339.612  339.486  339.346  339.194  339.032  338.862  338.688  338.513  338.341  338.178  338.030  337.903  337.808  337.753
   8   340.008  339.988  339.950  339.892  339.816  339.722  339.612  339.486  339.346  339.194  339.032  338.862  338.688  338.513  338.341  338.178  338.030  337.903  337.808  337.753
   9   340.008  339.988  339.950  339.892  339.816  339.722  339.612  339.486  339.346  339.194  339.032  338.862  338.688  338.513  338.341  338.178  338.030  337.903  337.808  337.753
  10   340.008  339.988  339.950  339.892  339.816  339.722  339.612  339.486  339.346  339.194  339.032  338.862  338.688  338.513  338.341  338.178  338.030  337.903  337.808  337.753
  11   340.008  339.988  339.950  339.892  339.816  339.722  339.612  339.486  339.346  339.194  339.032  338.862  338.688  338.513  338.341  338.178  338.030  337.903  337.808  337.753
  12   340.008  339.988  339.950  339.892  339.816  339.722  339.612  339.486  339.346  339.194  339.032  338.862  338.688  338.513  338.341  338.178  338.030  337.903  337.808  337.753
  13   340.008  339.988  339.950  339.892  339.816  339.722  339.612  339.486  339.346  339.194  339.032  338.862  338.688  338.513  338.341  338.178  338.030  337.903  337.808  337.753
  14   340.008  339.988  339.950  339.892  339.816  339.722  339.612  339.486  339.346  339.194  339.032  338.862  338.688  338.513  338.341  338.178  338.030  337.903  337.808  337.753
  15   340.008  339.988  339.950  339.892  339.816  339.722  339.612  339.486  339.346  339.194  339.032  338.862  338.688  338.513  338.341  338.178  338.030  337.903  337.808  337.753
  16   340.008  339.988  339.950  339.892  339.816  339.722  339.612  339.486  339.346  339.194  339.032  338.862  338.688  338.513  338.341  338.178  338.030  337.903  337.808  337.753
  17   340.008  339.988  339.950  339.892  339.816  339.722  339.612  339.486  339.346  339.194  339.032  338.862  338.688  338.513  338.341  338.178  338.030  337.903  337.808  337.753
  18   340.008  339.988  339.950  339.892  339.816  339.722  339.612  339.486  339.346  339.194  339.032  338.862  338.688  338.513  338.341  338.178  338.030  337.903  337.808  337.753
  19   340.008  339.988  339.950  339.892  339.816  339.722  339.612  339.486  339.346  339.194  339.032  338.862  338.688  338.513  338.341  338.178  338.030  337.903  337.808  337.753
  20   340.008  339.988  339.950  339.892  339.816  339.722  339.612  339.486  339.346  339.194  339.032  338.862  338.688  338.513  338.341  338.178  338.030  337.903  337.808  337.753
  21   340.008  339.988  339.950  339.892  339.816  339.722  339.612  339.486  339.346  339.194  339.032  338.862  338.688  338.513  338.341  338.178  338.030  337.903  337.808  337.753

 HEAD WILL BE SAVED ON UNIT 1013 AT END OF TIME STEP    1, STRESS PERIOD    1


  VOLUME BUDGET FOR ENTIRE MODEL AT END OF TIME STEP    1, STRESS PERIOD   1
  ---------------------------------------------------------------------------------------------------

     CUMULATIVE VOLUME      L**3       RATES FOR THIS TIME STEP      L**3/T          PACKAGE NAME    
     ------------------                 ------------------------                     ----------------

           IN:                                      IN:
           ---                                      ---
                 RIV =           0.0000                   RIV =           0.0000     RIV_0                            
                RCHA =      525000.0000                  RCHA =      525000.0000     RCHA_0                           

            TOTAL IN =      525000.0000              TOTAL IN =      525000.0000

          OUT:                                     OUT:
          ----                                     ----
                 RIV =      524999.5761                   RIV =      524999.5761     RIV_0                            
                RCHA =           0.0000                  RCHA =           0.0000     RCHA_0                           

           TOTAL OUT =      524999.5761             TOTAL OUT =      524999.5761

            IN - OUT =           0.4239              IN - OUT =           0.4239

 PERCENT DISCREPANCY =           0.00     PERCENT DISCREPANCY =           0.00




         TIME SUMMARY AT END OF TIME STEP    1 IN STRESS PERIOD    1
                    SECONDS     MINUTES      HOURS       DAYS        YEARS
                    -----------------------------------------------------------
   TIME STEP LENGTH  86400.      1440.0      24.000      1.0000     2.73785E-03
 STRESS PERIOD TIME  86400.      1440.0      24.000      1.0000     2.73785E-03
         TOTAL TIME  86400.      1440.0      24.000      1.0000     2.73785E-03


end timestep

