                                   MODFLOW 6
                U.S. GEOLOGICAL SURVEY MODULAR HYDROLOGIC MODEL
                          GROUNDWATER FLOW MODEL (GWF)
                            VERSION 6.4.2 06/28/2023

   MODFLOW 6 compiled Jul 05 2023 20:29:14 with Intel(R) Fortran Intel(R) 64
   Compiler Classic for applications running on Intel(R) 64, Version 2021.7.0
                             Build 20220726_000000

This software has been approved for release by the U.S. Geological 
Survey (USGS). Although the software has been subjected to rigorous 
review, the USGS reserves the right to update the software as needed 
pursuant to further analysis and review. No warranty, expressed or 
implied, is made by the USGS or the U.S. Government as to the 
functionality of the software and related material nor shall the 
fact of release constitute any such warranty. Furthermore, the 
software is released on condition that neither the USGS nor the U.S. 
Government shall be held liable for any damages resulting from its 
authorized or unauthorized use. Also refer to the USGS Water 
Resources Software User Rights Notice for complete use, copyright, 
and distribution information.


As a work of the United States Government, this USGS product is 
in the public domain within the United States. You can copy, 
modify, distribute, and perform the work, even for commercial 
purposes, all without asking permission. Additionally, USGS 
waives copyright and related rights in the work worldwide 
through CC0 1.0 Universal Public Domain Dedication 
(https://creativecommons.org/publicdomain/zero/1.0/).

The following GNU Lesser General Public License (LGPL) libraries
are used in this USGS product:

    SPARSKIT version 2.0
      ilut, luson, and qsplit 
      (https://www-users.cse.umn.edu/~saad/software/SPARSKIT/)

    RCM - Reverse Cuthill McKee Ordering
      (https://people.math.sc.edu/Burkardt/f_src/rcm/rcm.html)

    BLAS - Basic Linear Algebra Subprograms Level 1
      (https://people.math.sc.edu/Burkardt/f_src/blas1_d/blas1_d.html)

    SPARSEKIT - Sparse Matrix Utility Package
      amux, dperm, dvperm, rperm, and cperm
      (https://people.sc.fsu.edu/~jburkardt/f77_src/sparsekit/sparsekit.html)

The following BSD-3 License libraries are used in this USGS product:

    Modern Fortran DAG Library
      Copyright (c) 2018, Jacob Williams
      All rights reserved.
      (https://github.com/jacobwilliams/daglib)

MODFLOW 6 compiler options: -Imac/obj_mf6 -O2 -no-heap-arrays -fpe0
-traceback -fpp -module mac/mod_mf6/ -c -o mac/obj_mf6/compilerversion.o

System command used to initiate simulation:
/Users/mnfienen/.local/share/flopy/bin/mf6

MODFLOW was compiled using uniform precision.

Real Variables
  KIND: 8
  TINY (smallest non-zero value):    2.225074-308
  HUGE (largest value):    1.797693+308
  PRECISION: 15
  SIZE IN BITS: 64

Integer Variables
  KIND: 4
  HUGE (largest value): 2147483647
  SIZE IN BITS: 32

Long Integer Variables
  KIND: 8
  HUGE (largest value): 9223372036854775807
  SIZE IN BITS: 64

Logical Variables
  KIND: 4
  SIZE IN BITS: 32
 
 NAMEFILE OPTIONS:
 END NAMEFILE OPTIONS:

 DIS -- STRUCTURED GRID DISCRETIZATION PACKAGE, VERSION 2 : 3/27/2014 - INPUT READ FROM MEMPATH: __INPUT__/PS2/DIS                                 


 NPF -- NODE PROPERTY FLOW PACKAGE, VERSION 1, 3/30/2015 INPUT READ FROM MEMPATH: __INPUT__/PS2/NPF                                 

 Setting Discretization Options
    Model length unit [0=UND, 1=FEET, 2=METERS, 3=CENTIMETERS] set as 1
    XORIGIN = .000000000000000
    YORIGIN = .000000000000000
    ANGROT = .000000000000000
 End Setting Discretization Options

 Setting Discretization Dimensions
    NLAY = 3
    NROW = 21
    NCOL = 20
 End Setting Discretization Dimensions

 Setting Discretization Griddata
    DELR set from input file
    DELC set from input file
    TOP set from input file
    BOTM set from input file
    IDOMAIN set from input file
 End Setting Discretization Griddata

 Setting NPF Options
    Cell-by-cell flow information will be saved to binary file whenever ICBCFL is not zero.
 End Setting NPF Options

 Setting NPF Griddata
    ICELLTYPE set from input file
    K set from input file
    K33 set from input file
    K22 not provided.  Setting K22 = K.
 End Setting NPF Griddata


 RCH   -- RCH PACKAGE, VERSION 8, 2/22/2014 INPUT READ FROM UNIT 1007
 # File generated by Flopy version 3.4.2 on 09/12/2023 at 13:51:58.

 PROCESSING RCH OPTIONS
    RECHARGE INPUT WILL BE READ AS ARRAY(S).
 END OF RCHA OPTIONS

 CHD   -- CHD PACKAGE, VERSION 8, 2/22/2014 INPUT READ FROM UNIT 1008
 # File generated by Flopy version 3.4.2 on 09/12/2023 at 13:51:58.

 PROCESSING CHD OPTIONS
 END OF CHD OPTIONS

 PROCESSING CHD DIMENSIONS
    MAXBOUND =      21
 END OF CHD DIMENSIONS

 IC -- INITIAL CONDITIONS PACKAGE, VERSION 8, 3/28/2015 INPUT READ FROM UNIT 1005
 # File generated by Flopy version 3.4.2 on 09/12/2023 at 13:51:58.
 PROCESSING GRIDDATA

     INITIAL HEAD =   320.0000     FOR LAYER 1

     INITIAL HEAD =   320.0000     FOR LAYER 2

     INITIAL HEAD =   320.0000     FOR LAYER 3
 END PROCESSING GRIDDATA
    BINARY GRID INFORMATION WILL BE WRITTEN TO:
      UNIT NUMBER: 1012
      FILE NAME: ps2.dis.grb

 OPENED ps2.dis.grb
 FILE TYPE:DATA(BINARY)   UNIT 1012   STATUS:REPLACE             
 FORMAT:UNFORMATTED            ACCESS:STREAM              
 ACTION:READWRITE           

      THE LAST TIME STEP WILL BE PRINTED
      THE LAST TIME STEP WILL BE PRINTED
 # File generated by Flopy version 3.4.2 on 09/12/2023 at 13:51:58.

 PROCESSING OC OPTIONS

    HEAD INFORMATION WILL BE WRITTEN TO:
      UNIT NUMBER: 1013
      FILE NAME: ps2.hed

 OPENED ps2.hed
 FILE TYPE:DATA(BINARY)   UNIT 1013   STATUS:REPLACE             
 FORMAT:UNFORMATTED            ACCESS:STREAM              
 ACTION:READWRITE           

 END OF OC OPTIONS

start timestep kper="1" kstp="1" mode="normal"


 BEGIN READING OUTPUT CONTROL FOR STRESS PERIOD 1
      ALL TIME STEPS WILL BE SAVED
      ALL TIME STEPS WILL BE PRINTED
      ALL TIME STEPS WILL BE PRINTED

 END READING OUTPUT CONTROL FOR STRESS PERIOD 1

                 RECHARGE =  0.5000000E-02
1
  HEAD IN LAYER   1 AT END OF TIME STEP   1 IN STRESS PERIOD    1
  ---------------------------------------------------------------------------

            1        2        3        4        5        6        7        8        9       10       11       12       13       14       15       16       17       18       19       20
 .......................................................................................................................................................................................
   1   333.461  333.422  333.344  333.225  333.063  332.855  332.597  332.285  331.913  331.473  330.957  330.354  329.650  328.831  327.875  326.760  325.457  323.928  322.128  320.000
   2   333.461  333.422  333.344  333.225  333.063  332.855  332.597  332.285  331.913  331.473  330.957  330.354  329.650  328.831  327.875  326.760  325.457  323.928  322.128  320.000
   3   333.461  333.422  333.344  333.225  333.063  332.855  332.597  332.285  331.913  331.473  330.957  330.354  329.650  328.831  327.875  326.760  325.457  323.928  322.128  320.000
   4   333.461  333.422  333.344  333.225  333.063  332.855  332.597  332.285  331.913  331.473  330.957  330.354  329.650  328.831  327.875  326.760  325.457  323.928  322.128  320.000
   5   333.461  333.422  333.344  333.225  333.063  332.855  332.597  332.285  331.913  331.473  330.957  330.354  329.650  328.831  327.875  326.760  325.457  323.928  322.128  320.000
   6   333.461  333.422  333.344  333.225  333.063  332.855  332.597  332.285  331.913  331.473  330.957  330.354  329.650  328.831  327.875  326.760  325.457  323.928  322.128  320.000
   7   333.461  333.422  333.344  333.225  333.063  332.855  332.597  332.285  331.913  331.473  330.957  330.354  329.650  328.831  327.875  326.760  325.457  323.928  322.128  320.000
   8   333.461  333.422  333.344  333.225  333.063  332.855  332.597  332.285  331.913  331.473  330.957  330.354  329.650  328.831  327.875  326.760  325.457  323.928  322.128  320.000
   9   333.461  333.422  333.344  333.225  333.063  332.855  332.597  332.285  331.913  331.473  330.957  330.354  329.650  328.831  327.875  326.760  325.457  323.928  322.128  320.000
  10   333.461  333.422  333.344  333.225  333.063  332.855  332.597  332.285  331.913  331.473  330.957  330.354  329.650  328.831  327.875  326.760  325.457  323.928  322.128  320.000
  11   333.461  333.422  333.344  333.225  333.063  332.855  332.597  332.285  331.913  331.473  330.957  330.354  329.650  328.831  327.875  326.760  325.457  323.928  322.128  320.000
  12   333.461  333.422  333.344  333.225  333.063  332.855  332.597  332.285  331.913  331.473  330.957  330.354  329.650  328.831  327.875  326.760  325.457  323.928  322.128  320.000
  13   333.461  333.422  333.344  333.225  333.063  332.855  332.597  332.285  331.913  331.473  330.957  330.354  329.650  328.831  327.875  326.760  325.457  323.928  322.128  320.000
  14   333.461  333.422  333.344  333.225  333.063  332.855  332.597  332.285  331.913  331.473  330.957  330.354  329.650  328.831  327.875  326.760  325.457  323.928  322.128  320.000
  15   333.461  333.422  333.344  333.225  333.063  332.855  332.597  332.285  331.913  331.473  330.957  330.354  329.650  328.831  327.875  326.760  325.457  323.928  322.128  320.000
  16   333.461  333.422  333.344  333.225  333.063  332.855  332.597  332.285  331.913  331.473  330.957  330.354  329.650  328.831  327.875  326.760  325.457  323.928  322.128  320.000
  17   333.461  333.422  333.344  333.225  333.063  332.855  332.597  332.285  331.913  331.473  330.957  330.354  329.650  328.831  327.875  326.760  325.457  323.928  322.128  320.000
  18   333.461  333.422  333.344  333.225  333.063  332.855  332.597  332.285  331.913  331.473  330.957  330.354  329.650  328.831  327.875  326.760  325.457  323.928  322.128  320.000
  19   333.461  333.422  333.344  333.225  333.063  332.855  332.597  332.285  331.913  331.473  330.957  330.354  329.650  328.831  327.875  326.760  325.457  323.928  322.128  320.000
  20   333.461  333.422  333.344  333.225  333.063  332.855  332.597  332.285  331.913  331.473  330.957  330.354  329.650  328.831  327.875  326.760  325.457  323.928  322.128  320.000
  21   333.461  333.422  333.344  333.225  333.063  332.855  332.597  332.285  331.913  331.473  330.957  330.354  329.650  328.831  327.875  326.760  325.457  323.928  322.128  320.000
1
  HEAD IN LAYER   2 AT END OF TIME STEP   1 IN STRESS PERIOD    1
  ---------------------------------------------------------------------------

            1        2        3        4        5        6        7        8        9       10       11       12       13       14       15       16       17       18       19       20
 .......................................................................................................................................................................................
   1   331.828  331.803  331.754  331.679  331.579  331.450  331.293  331.105  330.882  330.623  330.324  329.978  329.582  329.127  328.605  328.006  327.317  326.522  325.599  324.523
   2   331.828  331.803  331.754  331.679  331.579  331.450  331.293  331.105  330.882  330.623  330.324  329.978  329.582  329.127  328.605  328.006  327.317  326.522  325.599  324.523
   3   331.828  331.803  331.754  331.679  331.579  331.450  331.293  331.105  330.882  330.623  330.324  329.978  329.582  329.127  328.605  328.006  327.317  326.522  325.599  324.523
   4   331.828  331.803  331.754  331.679  331.579  331.450  331.293  331.105  330.882  330.623  330.324  329.978  329.582  329.127  328.605  328.006  327.317  326.522  325.599  324.523
   5   331.828  331.803  331.754  331.679  331.579  331.450  331.293  331.105  330.882  330.623  330.324  329.978  329.582  329.127  328.605  328.006  327.317  326.522  325.599  324.523
   6   331.828  331.803  331.754  331.679  331.579  331.450  331.293  331.105  330.882  330.623  330.324  329.978  329.582  329.127  328.605  328.006  327.317  326.522  325.599  324.523
   7   331.828  331.803  331.754  331.679  331.579  331.450  331.293  331.105  330.882  330.623  330.324  329.978  329.582  329.127  328.605  328.006  327.317  326.522  325.599  324.523
   8   331.828  331.803  331.754  331.679  331.579  331.450  331.293  331.105  330.882  330.623  330.324  329.978  329.582  329.127  328.605  328.006  327.317  326.522  325.599  324.523
   9   331.828  331.803  331.754  331.679  331.579  331.450  331.293  331.105  330.882  330.623  330.324  329.978  329.582  329.127  328.605  328.006  327.317  326.522  325.599  324.523
  10   331.828  331.803  331.754  331.679  331.579  331.450  331.293  331.105  330.882  330.623  330.324  329.978  329.582  329.127  328.605  328.006  327.317  326.522  325.599  324.523
  11   331.828  331.803  331.754  331.679  331.579  331.450  331.293  331.105  330.882  330.623  330.324  329.978  329.582  329.127  328.605  328.006  327.317  326.522  325.599  324.523
  12   331.828  331.803  331.754  331.679  331.579  331.450  331.293  331.105  330.882  330.623  330.324  329.978  329.582  329.127  328.605  328.006  327.317  326.522  325.599  324.523
  13   331.828  331.803  331.754  331.679  331.579  331.450  331.293  331.105  330.882  330.623  330.324  329.978  329.582  329.127  328.605  328.006  327.317  326.522  325.599  324.523
  14   331.828  331.803  331.754  331.679  331.579  331.450  331.293  331.105  330.882  330.623  330.324  329.978  329.582  329.127  328.605  328.006  327.317  326.522  325.599  324.523
  15   331.828  331.803  331.754  331.679  331.579  331.450  331.293  331.105  330.882  330.623  330.324  329.978  329.582  329.127  328.605  328.006  327.317  326.522  325.599  324.523
  16   331.828  331.803  331.754  331.679  331.579  331.450  331.293  331.105  330.882  330.623  330.324  329.978  329.582  329.127  328.605  328.006  327.317  326.522  325.599  324.523
  17   331.828  331.803  331.754  331.679  331.579  331.450  331.293  331.105  330.882  330.623  330.324  329.978  329.582  329.127  328.605  328.006  327.317  326.522  325.599  324.523
  18   331.828  331.803  331.754  331.679  331.579  331.450  331.293  331.105  330.882  330.623  330.324  329.978  329.582  329.127  328.605  328.006  327.317  326.522  325.599  324.523
  19   331.828  331.803  331.754  331.679  331.579  331.450  331.293  331.105  330.882  330.623  330.324  329.978  329.582  329.127  328.605  328.006  327.317  326.522  325.599  324.523
  20   331.828  331.803  331.754  331.679  331.579  331.450  331.293  331.105  330.882  330.623  330.324  329.978  329.582  329.127  328.605  328.006  327.317  326.522  325.599  324.523
  21   331.828  331.803  331.754  331.679  331.579  331.450  331.293  331.105  330.882  330.623  330.324  329.978  329.582  329.127  328.605  328.006  327.317  326.522  325.599  324.523
1
  HEAD IN LAYER   3 AT END OF TIME STEP   1 IN STRESS PERIOD    1
  ---------------------------------------------------------------------------

            1        2        3        4        5        6        7        8        9       10       11       12       13       14       15       16       17       18       19       20
 .......................................................................................................................................................................................
   1   330.200  330.190  330.170  330.140  330.101  330.052  329.994  329.929  329.856  329.777  329.692  329.604  329.513  329.422  329.333  329.248  329.171  329.105  329.056  329.028
   2   330.200  330.190  330.170  330.140  330.101  330.052  329.994  329.929  329.856  329.777  329.692  329.604  329.513  329.422  329.333  329.248  329.171  329.105  329.056  329.028
   3   330.200  330.190  330.170  330.140  330.101  330.052  329.994  329.929  329.856  329.777  329.692  329.604  329.513  329.422  329.333  329.248  329.171  329.105  329.056  329.028
   4   330.200  330.190  330.170  330.140  330.101  330.052  329.994  329.929  329.856  329.777  329.692  329.604  329.513  329.422  329.333  329.248  329.171  329.105  329.056  329.028
   5   330.200  330.190  330.170  330.140  330.101  330.052  329.994  329.929  329.856  329.777  329.692  329.604  329.513  329.422  329.333  329.248  329.171  329.105  329.056  329.028
   6   330.200  330.190  330.170  330.140  330.101  330.052  329.994  329.929  329.856  329.777  329.692  329.604  329.513  329.422  329.333  329.248  329.171  329.105  329.056  329.028
   7   330.200  330.190  330.170  330.140  330.101  330.052  329.994  329.929  329.856  329.777  329.692  329.604  329.513  329.422  329.333  329.248  329.171  329.105  329.056  329.028
   8   330.200  330.190  330.170  330.140  330.101  330.052  329.994  329.929  329.856  329.777  329.692  329.604  329.513  329.422  329.333  329.248  329.171  329.105  329.056  329.028
   9   330.200  330.190  330.170  330.140  330.101  330.052  329.994  329.929  329.856  329.777  329.692  329.604  329.513  329.422  329.333  329.248  329.171  329.105  329.056  329.028
  10   330.200  330.190  330.170  330.140  330.101  330.052  329.994  329.929  329.856  329.777  329.692  329.604  329.513  329.422  329.333  329.248  329.171  329.105  329.056  329.028
  11   330.200  330.190  330.170  330.140  330.101  330.052  329.994  329.929  329.856  329.777  329.692  329.604  329.513  329.422  329.333  329.248  329.171  329.105  329.056  329.028
  12   330.200  330.190  330.170  330.140  330.101  330.052  329.994  329.929  329.856  329.777  329.692  329.604  329.513  329.422  329.333  329.248  329.171  329.105  329.056  329.028
  13   330.200  330.190  330.170  330.140  330.101  330.052  329.994  329.929  329.856  329.777  329.692  329.604  329.513  329.422  329.333  329.248  329.171  329.105  329.056  329.028
  14   330.200  330.190  330.170  330.140  330.101  330.052  329.994  329.929  329.856  329.777  329.692  329.604  329.513  329.422  329.333  329.248  329.171  329.105  329.056  329.028
  15   330.200  330.190  330.170  330.140  330.101  330.052  329.994  329.929  329.856  329.777  329.692  329.604  329.513  329.422  329.333  329.248  329.171  329.105  329.056  329.028
  16   330.200  330.190  330.170  330.140  330.101  330.052  329.994  329.929  329.856  329.777  329.692  329.604  329.513  329.422  329.333  329.248  329.171  329.105  329.056  329.028
  17   330.200  330.190  330.170  330.140  330.101  330.052  329.994  329.929  329.856  329.777  329.692  329.604  329.513  329.422  329.333  329.248  329.171  329.105  329.056  329.028
  18   330.200  330.190  330.170  330.140  330.101  330.052  329.994  329.929  329.856  329.777  329.692  329.604  329.513  329.422  329.333  329.248  329.171  329.105  329.056  329.028
  19   330.200  330.190  330.170  330.140  330.101  330.052  329.994  329.929  329.856  329.777  329.692  329.604  329.513  329.422  329.333  329.248  329.171  329.105  329.056  329.028
  20   330.200  330.190  330.170  330.140  330.101  330.052  329.994  329.929  329.856  329.777  329.692  329.604  329.513  329.422  329.333  329.248  329.171  329.105  329.056  329.028
  21   330.200  330.190  330.170  330.140  330.101  330.052  329.994  329.929  329.856  329.777  329.692  329.604  329.513  329.422  329.333  329.248  329.171  329.105  329.056  329.028

 HEAD WILL BE SAVED ON UNIT 1013 AT END OF TIME STEP    1, STRESS PERIOD    1


  VOLUME BUDGET FOR ENTIRE MODEL AT END OF TIME STEP    1, STRESS PERIOD   1
  ---------------------------------------------------------------------------------------------------

     CUMULATIVE VOLUME      L**3       RATES FOR THIS TIME STEP      L**3/T          PACKAGE NAME    
     ------------------                 ------------------------                     ----------------

           IN:                                      IN:
           ---                                      ---
                RCHA =      498750.0000                  RCHA =      498750.0000     RCHA_0                           
                 CHD =           0.0000                   CHD =           0.0000     CHD_0                            

            TOTAL IN =      498750.0000              TOTAL IN =      498750.0000

          OUT:                                     OUT:
          ----                                     ----
                RCHA =           0.0000                  RCHA =           0.0000     RCHA_0                           
                 CHD =      498750.1457                   CHD =      498750.1457     CHD_0                            

           TOTAL OUT =      498750.1457             TOTAL OUT =      498750.1457

            IN - OUT =          -0.1457              IN - OUT =          -0.1457

 PERCENT DISCREPANCY =          -0.00     PERCENT DISCREPANCY =          -0.00




         TIME SUMMARY AT END OF TIME STEP    1 IN STRESS PERIOD    1
                    SECONDS     MINUTES      HOURS       DAYS        YEARS
                    -----------------------------------------------------------
   TIME STEP LENGTH  86400.      1440.0      24.000      1.0000     2.73785E-03
 STRESS PERIOD TIME  86400.      1440.0      24.000      1.0000     2.73785E-03
         TOTAL TIME  86400.      1440.0      24.000      1.0000     2.73785E-03


end timestep

