                                   MODFLOW 6
                U.S. GEOLOGICAL SURVEY MODULAR HYDROLOGIC MODEL
                          GROUNDWATER FLOW MODEL (GWF)
                            VERSION 6.4.2 06/28/2023

   MODFLOW 6 compiled Jul 05 2023 20:29:14 with Intel(R) Fortran Intel(R) 64
   Compiler Classic for applications running on Intel(R) 64, Version 2021.7.0
                             Build 20220726_000000

This software has been approved for release by the U.S. Geological 
Survey (USGS). Although the software has been subjected to rigorous 
review, the USGS reserves the right to update the software as needed 
pursuant to further analysis and review. No warranty, expressed or 
implied, is made by the USGS or the U.S. Government as to the 
functionality of the software and related material nor shall the 
fact of release constitute any such warranty. Furthermore, the 
software is released on condition that neither the USGS nor the U.S. 
Government shall be held liable for any damages resulting from its 
authorized or unauthorized use. Also refer to the USGS Water 
Resources Software User Rights Notice for complete use, copyright, 
and distribution information.


As a work of the United States Government, this USGS product is 
in the public domain within the United States. You can copy, 
modify, distribute, and perform the work, even for commercial 
purposes, all without asking permission. Additionally, USGS 
waives copyright and related rights in the work worldwide 
through CC0 1.0 Universal Public Domain Dedication 
(https://creativecommons.org/publicdomain/zero/1.0/).

The following GNU Lesser General Public License (LGPL) libraries
are used in this USGS product:

    SPARSKIT version 2.0
      ilut, luson, and qsplit 
      (https://www-users.cse.umn.edu/~saad/software/SPARSKIT/)

    RCM - Reverse Cuthill McKee Ordering
      (https://people.math.sc.edu/Burkardt/f_src/rcm/rcm.html)

    BLAS - Basic Linear Algebra Subprograms Level 1
      (https://people.math.sc.edu/Burkardt/f_src/blas1_d/blas1_d.html)

    SPARSEKIT - Sparse Matrix Utility Package
      amux, dperm, dvperm, rperm, and cperm
      (https://people.sc.fsu.edu/~jburkardt/f77_src/sparsekit/sparsekit.html)

The following BSD-3 License libraries are used in this USGS product:

    Modern Fortran DAG Library
      Copyright (c) 2018, Jacob Williams
      All rights reserved.
      (https://github.com/jacobwilliams/daglib)

MODFLOW 6 compiler options: -Imac/obj_mf6 -O2 -no-heap-arrays -fpe0
-traceback -fpp -module mac/mod_mf6/ -c -o mac/obj_mf6/compilerversion.o

System command used to initiate simulation:
/Users/mnfienen/.local/share/flopy/bin/mf6

MODFLOW was compiled using uniform precision.

Real Variables
  KIND: 8
  TINY (smallest non-zero value):    2.225074-308
  HUGE (largest value):    1.797693+308
  PRECISION: 15
  SIZE IN BITS: 64

Integer Variables
  KIND: 4
  HUGE (largest value): 2147483647
  SIZE IN BITS: 32

Long Integer Variables
  KIND: 8
  HUGE (largest value): 9223372036854775807
  SIZE IN BITS: 64

Logical Variables
  KIND: 4
  SIZE IN BITS: 32
 
 NAMEFILE OPTIONS:
 END NAMEFILE OPTIONS:

 DIS -- STRUCTURED GRID DISCRETIZATION PACKAGE, VERSION 2 : 3/27/2014 - INPUT READ FROM MEMPATH: __INPUT__/PS2/DIS                                 


 NPF -- NODE PROPERTY FLOW PACKAGE, VERSION 1, 3/30/2015 INPUT READ FROM MEMPATH: __INPUT__/PS2/NPF                                 

 Setting Discretization Options
    Model length unit [0=UND, 1=FEET, 2=METERS, 3=CENTIMETERS] set as 1
    XORIGIN = .000000000000000
    YORIGIN = .000000000000000
    ANGROT = .000000000000000
 End Setting Discretization Options

 Setting Discretization Dimensions
    NLAY = 3
    NROW = 21
    NCOL = 20
 End Setting Discretization Dimensions

 Setting Discretization Griddata
    DELR set from input file
    DELC set from input file
    TOP set from input file
    BOTM set from input file
    IDOMAIN set from input file
 End Setting Discretization Griddata

 Setting NPF Options
    Cell-by-cell flow information will be saved to binary file whenever ICBCFL is not zero.
 End Setting NPF Options

 Setting NPF Griddata
    ICELLTYPE set from input file
    K set from input file
    K33 set from input file
    K22 not provided.  Setting K22 = K.
 End Setting NPF Griddata


 WEL   -- WEL PACKAGE, VERSION 8, 2/22/2014 INPUT READ FROM UNIT 1007
 # File generated by Flopy version 3.4.2 on 09/12/2023 at 13:55:02.

 PROCESSING WEL OPTIONS
 END OF WEL OPTIONS

 PROCESSING WEL DIMENSIONS
    MAXBOUND =       1
 END OF WEL DIMENSIONS

 DRN   -- DRN PACKAGE, VERSION 8, 2/22/2014 INPUT READ FROM UNIT 1008
 # File generated by Flopy version 3.4.2 on 09/12/2023 at 13:55:02.

 PROCESSING DRN OPTIONS
    DRN FLOWS WILL BE PRINTED TO LISTING FILE.
 END OF DRN OPTIONS

 PROCESSING DRN DIMENSIONS
    MAXBOUND =      11
 END OF DRN DIMENSIONS

 RIV   -- RIV PACKAGE, VERSION 8, 2/22/2014 INPUT READ FROM UNIT 1009
 # File generated by Flopy version 3.4.2 on 09/12/2023 at 13:55:02.

 PROCESSING RIV OPTIONS
    FLOWS WILL BE SAVED TO BUDGET FILE SPECIFIED IN OUTPUT CONTROL
 END OF RIV OPTIONS

 PROCESSING RIV DIMENSIONS
    MAXBOUND =      21
 END OF RIV DIMENSIONS

 RCH   -- RCH PACKAGE, VERSION 8, 2/22/2014 INPUT READ FROM UNIT 1010
 # File generated by Flopy version 3.4.2 on 09/12/2023 at 13:55:02.

 PROCESSING RCH OPTIONS
    RECHARGE INPUT WILL BE READ AS ARRAY(S).
 END OF RCHA OPTIONS

 IC -- INITIAL CONDITIONS PACKAGE, VERSION 8, 3/28/2015 INPUT READ FROM UNIT 1005
 # File generated by Flopy version 3.4.2 on 09/12/2023 at 13:55:02.
 PROCESSING GRIDDATA

     INITIAL HEAD =   320.0000     FOR LAYER 1

     INITIAL HEAD =   320.0000     FOR LAYER 2

     INITIAL HEAD =   320.0000     FOR LAYER 3
 END PROCESSING GRIDDATA
    BINARY GRID INFORMATION WILL BE WRITTEN TO:
      UNIT NUMBER: 1014
      FILE NAME: ps2.dis.grb

 OPENED ps2.dis.grb
 FILE TYPE:DATA(BINARY)   UNIT 1014   STATUS:REPLACE             
 FORMAT:UNFORMATTED            ACCESS:STREAM              
 ACTION:READWRITE           

      THE LAST TIME STEP WILL BE PRINTED
      THE LAST TIME STEP WILL BE PRINTED
 # File generated by Flopy version 3.4.2 on 09/12/2023 at 13:55:02.

 PROCESSING OC OPTIONS

    HEAD INFORMATION WILL BE WRITTEN TO:
      UNIT NUMBER: 1015
      FILE NAME: ps2.hed

 OPENED ps2.hed
 FILE TYPE:DATA(BINARY)   UNIT 1015   STATUS:REPLACE             
 FORMAT:UNFORMATTED            ACCESS:STREAM              
 ACTION:READWRITE           

 END OF OC OPTIONS

start timestep kper="1" kstp="1" mode="normal"


 BEGIN READING OUTPUT CONTROL FOR STRESS PERIOD 1
      ALL TIME STEPS WILL BE SAVED
      ALL TIME STEPS WILL BE PRINTED
      ALL TIME STEPS WILL BE PRINTED

 END READING OUTPUT CONTROL FOR STRESS PERIOD 1

                 RECHARGE =  0.5000000E-02

 DRN PACKAGE (DRN_0) FLOW RATES   PERIOD      1   STEP        1
 -----------------------------------------------
   NUMBER   CELLID                    RATE      
 -----------------------------------------------
     1      (1,15,10)            -53376.269     
     2      (1,15,11)            -27111.935     
     3      (1,15,12)            -22373.019     
     4      (1,15,13)            -19998.471     
     5      (1,15,14)            -18064.255     
     6      (1,15,15)            -15976.133     
     7      (1,15,16)            -13336.142     
     8      (1,15,17)            -9503.4521     
     9      (1,15,18)            -322.85351     
     10     (1,15,19)             0.0000000     
     11     (1,15,20)             0.0000000     
 -----------------------------------------------



1
  HEAD IN LAYER   1 AT END OF TIME STEP   1 IN STRESS PERIOD    1
  ---------------------------------------------------------------------------

            1        2        3        4        5        6        7        8        9       10       11       12       13       14       15       16       17       18       19       20
 .......................................................................................................................................................................................
   1   336.195  336.136  336.018  335.841  335.607  335.316  334.968  334.562  334.097  333.567  332.963  332.273  331.477  330.554  329.473  328.200  326.693  324.896  322.745  320.155
   2   336.164  336.103  335.982  335.802  335.563  335.266  334.912  334.501  334.032  333.500  332.896  332.208  331.418  330.501  329.428  328.163  326.664  324.877  322.735  320.154
   3   336.103  336.039  335.913  335.724  335.474  335.165  334.798  334.376  333.898  333.361  332.758  332.077  331.297  330.393  329.336  328.088  326.606  324.837  322.714  320.153
   4   336.013  335.945  335.810  335.608  335.341  335.012  334.624  334.181  333.687  333.142  332.541  331.870  331.108  330.227  329.194  327.973  326.518  324.777  322.683  320.152
   5   335.898  335.823  335.676  335.455  335.163  334.804  334.383  333.908  333.388  332.829  332.231  331.577  330.843  329.995  328.999  327.815  326.398  324.695  322.640  320.150
   6   335.760  335.678  335.514  335.268  334.943  334.541  334.070  333.543  332.980  332.398  331.805  331.181  330.489  329.690  328.744  327.610  326.243  324.590  322.585  320.147
   7   335.606  335.514  335.330  335.053  334.683  334.222  333.679  333.071  332.433  331.809  331.231  330.659  330.034  329.305  328.426  327.357  326.052  324.460  322.517  320.144
   8   335.443  335.340  335.132  334.817  334.392  333.854  333.208  332.473  331.700  330.990  330.455  329.983  329.465  328.833  328.041  327.051  325.822  324.304  322.436  320.140
   9   335.277  335.163  334.930  334.574  334.086  333.455  332.672  331.740  330.713  329.786  329.400  329.131  328.779  328.274  327.587  326.691  325.551  324.121  322.341  320.135
  10   335.119  334.993  334.736  334.340  333.788  333.058  332.114  330.907  329.400  327.790  327.983  328.118  327.996  327.638  327.066  326.275  325.237  323.909  322.231  320.130
  11   334.976  334.840  334.563  334.132  333.527  332.714  331.632  330.154  327.916  323.605  326.336  327.092  327.180  326.944  326.478  325.795  324.873  323.664  322.106  320.123
  12   334.854  334.712  334.420  333.966  333.327  332.470  331.348  329.906  328.115  326.233  326.305  326.441  326.403  326.189  325.804  325.237  324.450  323.385  321.965  320.117
  13   334.760  334.614  334.315  333.849  333.193  332.316  331.180  329.759  328.107  326.545  325.904  325.657  325.496  325.293  324.995  324.564  323.951  323.073  321.814  320.109
  14   334.695  334.548  334.249  333.782  333.125  332.243  331.087  329.596  327.722  325.617  324.781  324.458  324.296  324.155  323.977  323.725  323.350  322.749  321.674  320.103
  15   334.658  334.515  334.222  333.766  333.126  332.264  331.119  329.562  327.254  323.034  322.771  322.724  322.700  322.681  322.660  322.633  322.595  322.503  321.594  320.099
  16   334.646  334.508  334.228  333.795  333.192  332.392  331.353  330.013  328.299  326.290  325.369  324.885  324.567  324.307  324.048  323.747  323.347  322.738  321.665  320.102
  17   334.652  334.523  334.260  333.857  333.303  332.585  331.685  330.594  329.338  328.061  327.148  326.504  326.004  325.560  325.106  324.586  323.929  323.041  321.792  320.108
  18   334.671  334.549  334.304  333.933  333.430  332.792  332.019  331.122  330.144  329.175  328.347  327.659  327.059  326.490  325.894  325.212  324.379  323.312  321.919  320.114
  19   334.692  334.578  334.350  334.006  333.546  332.974  332.296  331.532  330.714  329.898  329.138  328.444  327.793  327.144  326.451  325.660  324.707  323.522  322.022  320.119
  20   334.711  334.603  334.386  334.062  333.633  333.106  332.490  331.805  331.077  330.340  329.622  328.932  328.254  327.560  326.807  325.948  324.922  323.663  322.093  320.123
  21   334.722  334.616  334.406  334.092  333.680  333.175  332.589  331.941  331.253  330.550  329.853  329.165  328.477  327.761  326.981  326.089  325.028  323.734  322.129  320.124
1
  HEAD IN LAYER   2 AT END OF TIME STEP   1 IN STRESS PERIOD    1
  ---------------------------------------------------------------------------

            1        2        3        4        5        6        7        8        9       10       11       12       13       14       15       16       17       18       19       20
 .......................................................................................................................................................................................
   1   333.265  333.229  333.157  333.049  332.907  332.731  332.521  332.279  332.002  331.690  331.339  330.943  330.494  329.981  329.391  328.708  327.912  326.979  325.877  324.569
   2   333.247  333.210  333.137  333.027  332.882  332.703  332.490  332.245  331.966  331.653  331.302  330.908  330.461  329.952  329.366  328.687  327.895  326.966  325.870  324.566
   3   333.212  333.173  333.097  332.983  332.833  332.647  332.428  332.176  331.893  331.577  331.227  330.835  330.394  329.892  329.314  328.644  327.861  326.942  325.855  324.561
   4   333.160  333.119  333.038  332.917  332.758  332.562  332.331  332.069  331.778  331.458  331.109  330.722  330.290  329.799  329.234  328.578  327.810  326.904  325.832  324.554
   5   333.093  333.049  332.962  332.831  332.659  332.447  332.199  331.920  331.616  331.289  330.940  330.563  330.145  329.672  329.126  328.488  327.739  326.854  325.801  324.544
   6   333.014  332.966  332.869  332.726  332.536  332.302  332.029  331.724  331.396  331.058  330.712  330.350  329.954  329.505  328.985  328.373  327.650  326.790  325.763  324.532
   7   332.925  332.872  332.765  332.605  332.392  332.128  331.817  331.471  331.105  330.745  330.407  330.071  329.709  329.296  328.810  328.232  327.541  326.712  325.717  324.518
   8   332.830  332.771  332.652  332.473  332.231  331.928  331.565  331.153  330.719  330.315  329.998  329.713  329.406  329.042  328.600  328.063  327.411  326.620  325.663  324.503
   9   332.734  332.669  332.537  332.337  332.063  331.711  331.278  330.767  330.205  329.692  329.450  329.266  329.042  328.743  328.355  327.866  327.259  326.513  325.601  324.487
  10   332.641  332.570  332.426  332.205  331.898  331.496  330.981  330.331  329.528  328.673  328.719  328.738  328.630  328.405  328.076  327.640  327.085  326.392  325.531  324.470
  11   332.557  332.481  332.326  332.087  331.753  331.308  330.724  329.936  328.767  326.565  327.875  328.205  328.202  328.039  327.763  327.383  326.887  326.254  325.454  324.452
  12   332.484  332.405  332.242  331.991  331.639  331.172  330.566  329.796  328.849  327.856  327.841  327.860  327.794  327.643  327.409  327.087  326.660  326.100  325.370  324.435
  13   332.426  332.345  332.178  331.920  331.560  331.082  330.469  329.709  328.831  327.997  327.624  327.452  327.324  327.178  326.988  326.736  326.396  325.930  325.282  324.419
  14   332.384  332.302  332.135  331.877  331.516  331.035  330.412  329.617  328.627  327.521  327.051  326.839  326.711  326.596  326.466  326.303  326.084  325.757  325.200  324.405
  15   332.357  332.277  332.114  331.861  331.508  331.038  330.420  329.592  328.385  326.225  326.039  325.965  325.905  325.851  325.799  325.749  325.698  325.625  325.152  324.395
  16   332.345  332.267  332.111  331.869  331.536  331.096  330.532  329.813  328.903  327.845  327.332  327.040  326.833  326.658  326.487  326.299  326.067  325.736  325.181  324.390
  17   332.343  332.269  332.121  331.895  331.587  331.189  330.695  330.101  329.422  328.730  328.221  327.848  327.550  327.282  327.014  326.716  326.355  325.883  325.240  324.388
  18   332.348  332.279  332.140  331.930  331.648  331.291  330.861  330.365  329.825  329.289  328.823  328.428  328.079  327.748  327.408  327.028  326.578  326.017  325.300  324.388
  19   332.356  332.291  332.160  331.965  331.704  331.381  330.999  330.570  330.112  329.652  329.221  328.823  328.448  328.077  327.687  327.252  326.741  326.121  325.350  324.389
  20   332.364  332.301  332.177  331.991  331.747  331.446  331.096  330.707  330.294  329.875  329.465  329.069  328.681  328.286  327.866  327.396  326.849  326.191  325.385  324.389
  21   332.368  332.307  332.186  332.006  331.769  331.481  331.146  330.776  330.383  329.981  329.581  329.186  328.793  328.388  327.954  327.467  326.902  326.226  325.402  324.390
1
  HEAD IN LAYER   3 AT END OF TIME STEP   1 IN STRESS PERIOD    1
  ---------------------------------------------------------------------------

            1        2        3        4        5        6        7        8        9       10       11       12       13       14       15       16       17       18       19       20
 .......................................................................................................................................................................................
   1   330.347  330.334  330.308  330.269  330.218  330.157  330.085  330.004  329.916  329.821  329.722  329.619  329.515  329.411  329.310  329.214  329.127  329.053  328.997  328.965
   2   330.342  330.329  330.303  330.264  330.213  330.151  330.079  329.998  329.909  329.815  329.715  329.612  329.508  329.405  329.304  329.208  329.122  329.048  328.992  328.960
   3   330.332  330.319  330.292  330.253  330.202  330.139  330.066  329.985  329.896  329.801  329.702  329.599  329.495  329.392  329.292  329.197  329.111  329.038  328.982  328.951
   4   330.318  330.305  330.277  330.237  330.185  330.122  330.048  329.966  329.876  329.781  329.681  329.579  329.476  329.374  329.275  329.181  329.096  329.023  328.969  328.937
   5   330.300  330.286  330.258  330.217  330.164  330.099  330.025  329.941  329.851  329.755  329.655  329.553  329.451  329.350  329.252  329.160  329.076  329.005  328.950  328.920
   6   330.278  330.264  330.236  330.194  330.139  330.073  329.996  329.911  329.819  329.723  329.623  329.522  329.421  329.321  329.224  329.134  329.052  328.982  328.929  328.899
   7   330.254  330.239  330.210  330.167  330.110  330.042  329.964  329.877  329.783  329.685  329.586  329.485  329.385  329.287  329.193  329.104  329.024  328.956  328.904  328.875
   8   330.228  330.213  330.182  330.138  330.079  330.009  329.928  329.838  329.743  329.644  329.544  329.444  329.346  329.250  329.158  329.071  328.993  328.927  328.877  328.848
   9   330.201  330.185  330.154  330.108  330.047  329.975  329.891  329.798  329.700  329.599  329.499  329.401  329.304  329.210  329.120  329.036  328.961  328.896  328.848  328.820
  10   330.174  330.158  330.125  330.078  330.016  329.940  329.854  329.758  329.656  329.552  329.453  329.356  329.261  329.169  329.082  329.000  328.927  328.865  328.818  328.792
  11   330.148  330.131  330.098  330.049  329.985  329.908  329.819  329.720  329.615  329.507  329.408  329.312  329.219  329.129  329.044  328.964  328.894  328.834  328.789  328.763
  12   330.123  330.106  330.073  330.023  329.958  329.879  329.788  329.687  329.580  329.473  329.371  329.273  329.180  329.091  329.007  328.930  328.862  328.804  328.761  328.736
  13   330.101  330.084  330.050  329.999  329.934  329.853  329.761  329.659  329.551  329.443  329.338  329.239  329.145  329.056  328.974  328.899  328.832  328.777  328.735  328.712
  14   330.082  330.065  330.030  329.980  329.913  329.833  329.740  329.637  329.528  329.417  329.311  329.211  329.116  329.028  328.946  328.872  328.807  328.753  328.713  328.690
  15   330.066  330.048  330.014  329.963  329.897  329.817  329.724  329.622  329.512  329.399  329.292  329.191  329.096  329.007  328.925  328.852  328.788  328.735  328.695  328.673
  16   330.052  330.035  330.001  329.951  329.886  329.806  329.715  329.613  329.505  329.395  329.288  329.186  329.089  328.999  328.916  328.841  328.776  328.722  328.682  328.660
  17   330.042  330.025  329.991  329.942  329.877  329.799  329.710  329.610  329.505  329.397  329.291  329.188  329.090  328.999  328.914  328.837  328.770  328.715  328.673  328.650
  18   330.034  330.017  329.984  329.936  329.872  329.796  329.708  329.611  329.508  329.402  329.297  329.194  329.095  329.002  328.915  328.837  328.768  328.711  328.668  328.644
  19   330.029  330.012  329.980  329.931  329.869  329.794  329.708  329.613  329.512  329.407  329.303  329.200  329.101  329.006  328.918  328.838  328.768  328.709  328.665  328.640
  20   330.025  330.009  329.977  329.929  329.867  329.793  329.708  329.615  329.515  329.412  329.308  329.205  329.105  329.010  328.921  328.840  328.768  328.708  328.663  328.638
  21   330.024  330.007  329.975  329.928  329.867  329.793  329.709  329.616  329.517  329.414  329.310  329.208  329.108  329.012  328.923  328.841  328.768  328.708  328.663  328.637

 HEAD WILL BE SAVED ON UNIT 1015 AT END OF TIME STEP    1, STRESS PERIOD    1


  VOLUME BUDGET FOR ENTIRE MODEL AT END OF TIME STEP    1, STRESS PERIOD   1
  ---------------------------------------------------------------------------------------------------

     CUMULATIVE VOLUME      L**3       RATES FOR THIS TIME STEP      L**3/T          PACKAGE NAME    
     ------------------                 ------------------------                     ----------------

           IN:                                      IN:
           ---                                      ---
                 WEL =           0.0000                   WEL =           0.0000     WEL_0                            
                 DRN =           0.0000                   DRN =           0.0000     DRN_0                            
                 RIV =           0.0000                   RIV =           0.0000     RIV_0                            
                RCHA =      525000.0000                  RCHA =      525000.0000     RCHA_0                           

            TOTAL IN =      525000.0000              TOTAL IN =      525000.0000

          OUT:                                     OUT:
          ----                                     ----
                 WEL =       75000.0000                   WEL =       75000.0000     WEL_0                            
                 DRN =      180062.5287                   DRN =      180062.5287     DRN_0                            
                 RIV =      269931.9172                   RIV =      269931.9172     RIV_0                            
                RCHA =           0.0000                  RCHA =           0.0000     RCHA_0                           

           TOTAL OUT =      524994.4459             TOTAL OUT =      524994.4459

            IN - OUT =           5.5541              IN - OUT =           5.5541

 PERCENT DISCREPANCY =           0.00     PERCENT DISCREPANCY =           0.00




         TIME SUMMARY AT END OF TIME STEP    1 IN STRESS PERIOD    1
                    SECONDS     MINUTES      HOURS       DAYS        YEARS
                    -----------------------------------------------------------
   TIME STEP LENGTH  86400.      1440.0      24.000      1.0000     2.73785E-03
 STRESS PERIOD TIME  86400.      1440.0      24.000      1.0000     2.73785E-03
         TOTAL TIME  86400.      1440.0      24.000      1.0000     2.73785E-03


end timestep

