                                   MODFLOW 6
                U.S. GEOLOGICAL SURVEY MODULAR HYDROLOGIC MODEL
                          GROUNDWATER FLOW MODEL (GWF)
                            VERSION 6.4.2 06/28/2023

   MODFLOW 6 compiled Jul 05 2023 20:29:14 with Intel(R) Fortran Intel(R) 64
   Compiler Classic for applications running on Intel(R) 64, Version 2021.7.0
                             Build 20220726_000000

This software has been approved for release by the U.S. Geological 
Survey (USGS). Although the software has been subjected to rigorous 
review, the USGS reserves the right to update the software as needed 
pursuant to further analysis and review. No warranty, expressed or 
implied, is made by the USGS or the U.S. Government as to the 
functionality of the software and related material nor shall the 
fact of release constitute any such warranty. Furthermore, the 
software is released on condition that neither the USGS nor the U.S. 
Government shall be held liable for any damages resulting from its 
authorized or unauthorized use. Also refer to the USGS Water 
Resources Software User Rights Notice for complete use, copyright, 
and distribution information.


As a work of the United States Government, this USGS product is 
in the public domain within the United States. You can copy, 
modify, distribute, and perform the work, even for commercial 
purposes, all without asking permission. Additionally, USGS 
waives copyright and related rights in the work worldwide 
through CC0 1.0 Universal Public Domain Dedication 
(https://creativecommons.org/publicdomain/zero/1.0/).

The following GNU Lesser General Public License (LGPL) libraries
are used in this USGS product:

    SPARSKIT version 2.0
      ilut, luson, and qsplit 
      (https://www-users.cse.umn.edu/~saad/software/SPARSKIT/)

    RCM - Reverse Cuthill McKee Ordering
      (https://people.math.sc.edu/Burkardt/f_src/rcm/rcm.html)

    BLAS - Basic Linear Algebra Subprograms Level 1
      (https://people.math.sc.edu/Burkardt/f_src/blas1_d/blas1_d.html)

    SPARSEKIT - Sparse Matrix Utility Package
      amux, dperm, dvperm, rperm, and cperm
      (https://people.sc.fsu.edu/~jburkardt/f77_src/sparsekit/sparsekit.html)

The following BSD-3 License libraries are used in this USGS product:

    Modern Fortran DAG Library
      Copyright (c) 2018, Jacob Williams
      All rights reserved.
      (https://github.com/jacobwilliams/daglib)

MODFLOW 6 compiler options: -Imac/obj_mf6 -O2 -no-heap-arrays -fpe0
-traceback -fpp -module mac/mod_mf6/ -c -o mac/obj_mf6/compilerversion.o

System command used to initiate simulation:
/Users/mnfienen/.local/share/flopy/bin/mf6

MODFLOW was compiled using uniform precision.

Real Variables
  KIND: 8
  TINY (smallest non-zero value):    2.225074-308
  HUGE (largest value):    1.797693+308
  PRECISION: 15
  SIZE IN BITS: 64

Integer Variables
  KIND: 4
  HUGE (largest value): 2147483647
  SIZE IN BITS: 32

Long Integer Variables
  KIND: 8
  HUGE (largest value): 9223372036854775807
  SIZE IN BITS: 64

Logical Variables
  KIND: 4
  SIZE IN BITS: 32
 
 NAMEFILE OPTIONS:
 END NAMEFILE OPTIONS:

 DIS -- STRUCTURED GRID DISCRETIZATION PACKAGE, VERSION 2 : 3/27/2014 - INPUT READ FROM MEMPATH: __INPUT__/PS2/DIS                                 


 NPF -- NODE PROPERTY FLOW PACKAGE, VERSION 1, 3/30/2015 INPUT READ FROM MEMPATH: __INPUT__/PS2/NPF                                 

 Setting Discretization Options
    Model length unit [0=UND, 1=FEET, 2=METERS, 3=CENTIMETERS] set as 1
    XORIGIN = .000000000000000
    YORIGIN = .000000000000000
    ANGROT = .000000000000000
 End Setting Discretization Options

 Setting Discretization Dimensions
    NLAY = 3
    NROW = 21
    NCOL = 20
 End Setting Discretization Dimensions

 Setting Discretization Griddata
    DELR set from input file
    DELC set from input file
    TOP set from input file
    BOTM set from input file
    IDOMAIN set from input file
 End Setting Discretization Griddata

 Setting NPF Options
    Cell-by-cell flow information will be saved to binary file whenever ICBCFL is not zero.
 End Setting NPF Options

 Setting NPF Griddata
    ICELLTYPE set from input file
    K set from input file
    K33 set from input file
    K22 not provided.  Setting K22 = K.
 End Setting NPF Griddata


 RCH   -- RCH PACKAGE, VERSION 8, 2/22/2014 INPUT READ FROM UNIT 1007
 # File generated by Flopy version 3.4.2 on 09/12/2023 at 13:51:10.

 PROCESSING RCH OPTIONS
    RECHARGE INPUT WILL BE READ AS ARRAY(S).
 END OF RCHA OPTIONS

 CHD   -- CHD PACKAGE, VERSION 8, 2/22/2014 INPUT READ FROM UNIT 1008
 # File generated by Flopy version 3.4.2 on 09/12/2023 at 13:51:10.

 PROCESSING CHD OPTIONS
 END OF CHD OPTIONS

 PROCESSING CHD DIMENSIONS
    MAXBOUND =      21
 END OF CHD DIMENSIONS

 IC -- INITIAL CONDITIONS PACKAGE, VERSION 8, 3/28/2015 INPUT READ FROM UNIT 1005
 # File generated by Flopy version 3.4.2 on 09/12/2023 at 13:51:10.
 PROCESSING GRIDDATA

     INITIAL HEAD =   320.0000     FOR LAYER 1

     INITIAL HEAD =   320.0000     FOR LAYER 2

     INITIAL HEAD =   320.0000     FOR LAYER 3
 END PROCESSING GRIDDATA
    BINARY GRID INFORMATION WILL BE WRITTEN TO:
      UNIT NUMBER: 1012
      FILE NAME: ps2.dis.grb

 OPENED ps2.dis.grb
 FILE TYPE:DATA(BINARY)   UNIT 1012   STATUS:REPLACE             
 FORMAT:UNFORMATTED            ACCESS:STREAM              
 ACTION:READWRITE           

      THE LAST TIME STEP WILL BE PRINTED
      THE LAST TIME STEP WILL BE PRINTED
 # File generated by Flopy version 3.4.2 on 09/12/2023 at 13:51:10.

 PROCESSING OC OPTIONS

    HEAD INFORMATION WILL BE WRITTEN TO:
      UNIT NUMBER: 1013
      FILE NAME: ps2.hed

 OPENED ps2.hed
 FILE TYPE:DATA(BINARY)   UNIT 1013   STATUS:REPLACE             
 FORMAT:UNFORMATTED            ACCESS:STREAM              
 ACTION:READWRITE           

 END OF OC OPTIONS

start timestep kper="1" kstp="1" mode="normal"


 BEGIN READING OUTPUT CONTROL FOR STRESS PERIOD 1
      ALL TIME STEPS WILL BE SAVED
      ALL TIME STEPS WILL BE PRINTED
      ALL TIME STEPS WILL BE PRINTED

 END READING OUTPUT CONTROL FOR STRESS PERIOD 1

                 RECHARGE =  0.5000000E-02
1
  HEAD IN LAYER   1 AT END OF TIME STEP   1 IN STRESS PERIOD    1
  ---------------------------------------------------------------------------

            1        2        3        4        5        6        7        8        9       10       11       12       13       14       15       16       17       18       19       20
 .......................................................................................................................................................................................
   1   346.054  345.979  345.828  345.598  345.286  344.886  344.391  343.792  343.079  342.238  341.251  340.099  338.755  337.189  335.362  333.224  330.714  327.750  324.227  320.000
   2   346.054  345.979  345.828  345.598  345.286  344.886  344.391  343.792  343.079  342.238  341.251  340.099  338.755  337.189  335.362  333.224  330.714  327.750  324.227  320.000
   3   346.054  345.979  345.828  345.598  345.286  344.886  344.391  343.792  343.079  342.238  341.251  340.099  338.755  337.189  335.362  333.224  330.714  327.750  324.227  320.000
   4   346.054  345.979  345.828  345.598  345.286  344.886  344.391  343.792  343.079  342.238  341.251  340.099  338.755  337.189  335.362  333.224  330.714  327.750  324.227  320.000
   5   346.054  345.979  345.828  345.598  345.286  344.886  344.391  343.792  343.079  342.238  341.251  340.099  338.755  337.189  335.362  333.224  330.714  327.750  324.227  320.000
   6   346.054  345.979  345.828  345.598  345.286  344.886  344.391  343.792  343.079  342.238  341.251  340.099  338.755  337.189  335.362  333.224  330.714  327.750  324.227  320.000
   7   346.054  345.979  345.828  345.598  345.286  344.886  344.391  343.792  343.079  342.238  341.251  340.099  338.755  337.189  335.362  333.224  330.714  327.750  324.227  320.000
   8   346.054  345.979  345.828  345.598  345.286  344.886  344.391  343.792  343.079  342.238  341.251  340.099  338.755  337.189  335.362  333.224  330.714  327.750  324.227  320.000
   9   346.054  345.979  345.828  345.598  345.286  344.886  344.391  343.792  343.079  342.238  341.251  340.099  338.755  337.189  335.362  333.224  330.714  327.750  324.227  320.000
  10   346.054  345.979  345.828  345.598  345.286  344.886  344.391  343.792  343.079  342.238  341.251  340.099  338.755  337.189  335.362  333.224  330.714  327.750  324.227  320.000
  11   346.054  345.979  345.828  345.598  345.286  344.886  344.391  343.792  343.079  342.238  341.251  340.099  338.755  337.189  335.362  333.224  330.714  327.750  324.227  320.000
  12   346.054  345.979  345.828  345.598  345.286  344.886  344.391  343.792  343.079  342.238  341.251  340.099  338.755  337.189  335.362  333.224  330.714  327.750  324.227  320.000
  13   346.054  345.979  345.828  345.598  345.286  344.886  344.391  343.792  343.079  342.238  341.251  340.099  338.755  337.189  335.362  333.224  330.714  327.750  324.227  320.000
  14   346.054  345.979  345.828  345.598  345.286  344.886  344.391  343.792  343.079  342.238  341.251  340.099  338.755  337.189  335.362  333.224  330.714  327.750  324.227  320.000
  15   346.054  345.979  345.828  345.598  345.286  344.886  344.391  343.792  343.079  342.238  341.251  340.099  338.755  337.189  335.362  333.224  330.714  327.750  324.227  320.000
  16   346.054  345.979  345.828  345.598  345.286  344.886  344.391  343.792  343.079  342.238  341.251  340.099  338.755  337.189  335.362  333.224  330.714  327.750  324.227  320.000
  17   346.054  345.979  345.828  345.598  345.286  344.886  344.391  343.792  343.079  342.238  341.251  340.099  338.755  337.189  335.362  333.224  330.714  327.750  324.227  320.000
  18   346.054  345.979  345.828  345.598  345.286  344.886  344.391  343.792  343.079  342.238  341.251  340.099  338.755  337.189  335.362  333.224  330.714  327.750  324.227  320.000
  19   346.054  345.979  345.828  345.598  345.286  344.886  344.391  343.792  343.079  342.238  341.251  340.099  338.755  337.189  335.362  333.224  330.714  327.750  324.227  320.000
  20   346.054  345.979  345.828  345.598  345.286  344.886  344.391  343.792  343.079  342.238  341.251  340.099  338.755  337.189  335.362  333.224  330.714  327.750  324.227  320.000
  21   346.054  345.979  345.828  345.598  345.286  344.886  344.391  343.792  343.079  342.238  341.251  340.099  338.755  337.189  335.362  333.224  330.714  327.750  324.227  320.000
1
  HEAD IN LAYER   2 AT END OF TIME STEP   1 IN STRESS PERIOD    1
  ---------------------------------------------------------------------------

            1        2        3        4        5        6        7        8        9       10       11       12       13       14       15       16       17       18       19       20
 .......................................................................................................................................................................................
   1   342.914  342.867  342.772  342.629  342.435  342.188  341.886  341.524  341.098  340.602  340.029  339.368  338.611  337.741  336.743  335.595  334.268  332.725  330.919  328.784
   2   342.914  342.867  342.772  342.629  342.435  342.188  341.886  341.524  341.098  340.602  340.029  339.368  338.611  337.741  336.743  335.595  334.268  332.725  330.919  328.784
   3   342.914  342.867  342.772  342.629  342.435  342.188  341.886  341.524  341.098  340.602  340.029  339.368  338.611  337.741  336.743  335.595  334.268  332.725  330.919  328.784
   4   342.914  342.867  342.772  342.629  342.435  342.188  341.886  341.524  341.098  340.602  340.029  339.368  338.611  337.741  336.743  335.595  334.268  332.725  330.919  328.784
   5   342.914  342.867  342.772  342.629  342.435  342.188  341.886  341.524  341.098  340.602  340.029  339.368  338.611  337.741  336.743  335.595  334.268  332.725  330.919  328.784
   6   342.914  342.867  342.772  342.629  342.435  342.188  341.886  341.524  341.098  340.602  340.029  339.368  338.611  337.741  336.743  335.595  334.268  332.725  330.919  328.784
   7   342.914  342.867  342.772  342.629  342.435  342.188  341.886  341.524  341.098  340.602  340.029  339.368  338.611  337.741  336.743  335.595  334.268  332.725  330.919  328.784
   8   342.914  342.867  342.772  342.629  342.435  342.188  341.886  341.524  341.098  340.602  340.029  339.368  338.611  337.741  336.743  335.595  334.268  332.725  330.919  328.784
   9   342.914  342.867  342.772  342.629  342.435  342.188  341.886  341.524  341.098  340.602  340.029  339.368  338.611  337.741  336.743  335.595  334.268  332.725  330.919  328.784
  10   342.914  342.867  342.772  342.629  342.435  342.188  341.886  341.524  341.098  340.602  340.029  339.368  338.611  337.741  336.743  335.595  334.268  332.725  330.919  328.784
  11   342.914  342.867  342.772  342.629  342.435  342.188  341.886  341.524  341.098  340.602  340.029  339.368  338.611  337.741  336.743  335.595  334.268  332.725  330.919  328.784
  12   342.914  342.867  342.772  342.629  342.435  342.188  341.886  341.524  341.098  340.602  340.029  339.368  338.611  337.741  336.743  335.595  334.268  332.725  330.919  328.784
  13   342.914  342.867  342.772  342.629  342.435  342.188  341.886  341.524  341.098  340.602  340.029  339.368  338.611  337.741  336.743  335.595  334.268  332.725  330.919  328.784
  14   342.914  342.867  342.772  342.629  342.435  342.188  341.886  341.524  341.098  340.602  340.029  339.368  338.611  337.741  336.743  335.595  334.268  332.725  330.919  328.784
  15   342.914  342.867  342.772  342.629  342.435  342.188  341.886  341.524  341.098  340.602  340.029  339.368  338.611  337.741  336.743  335.595  334.268  332.725  330.919  328.784
  16   342.914  342.867  342.772  342.629  342.435  342.188  341.886  341.524  341.098  340.602  340.029  339.368  338.611  337.741  336.743  335.595  334.268  332.725  330.919  328.784
  17   342.914  342.867  342.772  342.629  342.435  342.188  341.886  341.524  341.098  340.602  340.029  339.368  338.611  337.741  336.743  335.595  334.268  332.725  330.919  328.784
  18   342.914  342.867  342.772  342.629  342.435  342.188  341.886  341.524  341.098  340.602  340.029  339.368  338.611  337.741  336.743  335.595  334.268  332.725  330.919  328.784
  19   342.914  342.867  342.772  342.629  342.435  342.188  341.886  341.524  341.098  340.602  340.029  339.368  338.611  337.741  336.743  335.595  334.268  332.725  330.919  328.784
  20   342.914  342.867  342.772  342.629  342.435  342.188  341.886  341.524  341.098  340.602  340.029  339.368  338.611  337.741  336.743  335.595  334.268  332.725  330.919  328.784
  21   342.914  342.867  342.772  342.629  342.435  342.188  341.886  341.524  341.098  340.602  340.029  339.368  338.611  337.741  336.743  335.595  334.268  332.725  330.919  328.784
1
  HEAD IN LAYER   3 AT END OF TIME STEP   1 IN STRESS PERIOD    1
  ---------------------------------------------------------------------------

            1        2        3        4        5        6        7        8        9       10       11       12       13       14       15       16       17       18       19       20
 .......................................................................................................................................................................................
   1   339.788  339.768  339.729  339.672  339.596  339.502  339.392  339.266  339.126  338.974  338.811  338.641  338.467  338.291  338.120  337.956  337.807  337.681  337.585  337.531
   2   339.788  339.768  339.729  339.672  339.596  339.502  339.392  339.266  339.126  338.974  338.811  338.641  338.467  338.291  338.120  337.956  337.807  337.681  337.585  337.531
   3   339.788  339.768  339.729  339.672  339.596  339.502  339.392  339.266  339.126  338.974  338.811  338.641  338.467  338.291  338.120  337.956  337.807  337.681  337.585  337.531
   4   339.788  339.768  339.729  339.672  339.596  339.502  339.392  339.266  339.126  338.974  338.811  338.641  338.467  338.291  338.120  337.956  337.807  337.681  337.585  337.531
   5   339.788  339.768  339.729  339.672  339.596  339.502  339.392  339.266  339.126  338.974  338.811  338.641  338.467  338.291  338.120  337.956  337.807  337.681  337.585  337.531
   6   339.788  339.768  339.729  339.672  339.596  339.502  339.392  339.266  339.126  338.974  338.811  338.641  338.467  338.291  338.120  337.956  337.807  337.681  337.585  337.531
   7   339.788  339.768  339.729  339.672  339.596  339.502  339.392  339.266  339.126  338.974  338.811  338.641  338.467  338.291  338.120  337.956  337.807  337.681  337.585  337.531
   8   339.788  339.768  339.729  339.672  339.596  339.502  339.392  339.266  339.126  338.974  338.811  338.641  338.467  338.291  338.120  337.956  337.807  337.681  337.585  337.531
   9   339.788  339.768  339.729  339.672  339.596  339.502  339.392  339.266  339.126  338.974  338.811  338.641  338.467  338.291  338.120  337.956  337.807  337.681  337.585  337.531
  10   339.788  339.768  339.729  339.672  339.596  339.502  339.392  339.266  339.126  338.974  338.811  338.641  338.467  338.291  338.120  337.956  337.807  337.681  337.585  337.531
  11   339.788  339.768  339.729  339.672  339.596  339.502  339.392  339.266  339.126  338.974  338.811  338.641  338.467  338.291  338.120  337.956  337.807  337.681  337.585  337.531
  12   339.788  339.768  339.729  339.672  339.596  339.502  339.392  339.266  339.126  338.974  338.811  338.641  338.467  338.291  338.120  337.956  337.807  337.681  337.585  337.531
  13   339.788  339.768  339.729  339.672  339.596  339.502  339.392  339.266  339.126  338.974  338.811  338.641  338.467  338.291  338.120  337.956  337.807  337.681  337.585  337.531
  14   339.788  339.768  339.729  339.672  339.596  339.502  339.392  339.266  339.126  338.974  338.811  338.641  338.467  338.291  338.120  337.956  337.807  337.681  337.585  337.531
  15   339.788  339.768  339.729  339.672  339.596  339.502  339.392  339.266  339.126  338.974  338.811  338.641  338.467  338.291  338.120  337.956  337.807  337.681  337.585  337.531
  16   339.788  339.768  339.729  339.672  339.596  339.502  339.392  339.266  339.126  338.974  338.811  338.641  338.467  338.291  338.120  337.956  337.807  337.681  337.585  337.531
  17   339.788  339.768  339.729  339.672  339.596  339.502  339.392  339.266  339.126  338.974  338.811  338.641  338.467  338.291  338.120  337.956  337.807  337.681  337.585  337.531
  18   339.788  339.768  339.729  339.672  339.596  339.502  339.392  339.266  339.126  338.974  338.811  338.641  338.467  338.291  338.120  337.956  337.807  337.681  337.585  337.531
  19   339.788  339.768  339.729  339.672  339.596  339.502  339.392  339.266  339.126  338.974  338.811  338.641  338.467  338.291  338.120  337.956  337.807  337.681  337.585  337.531
  20   339.788  339.768  339.729  339.672  339.596  339.502  339.392  339.266  339.126  338.974  338.811  338.641  338.467  338.291  338.120  337.956  337.807  337.681  337.585  337.531
  21   339.788  339.768  339.729  339.672  339.596  339.502  339.392  339.266  339.126  338.974  338.811  338.641  338.467  338.291  338.120  337.956  337.807  337.681  337.585  337.531

 HEAD WILL BE SAVED ON UNIT 1013 AT END OF TIME STEP    1, STRESS PERIOD    1


  VOLUME BUDGET FOR ENTIRE MODEL AT END OF TIME STEP    1, STRESS PERIOD   1
  ---------------------------------------------------------------------------------------------------

     CUMULATIVE VOLUME      L**3       RATES FOR THIS TIME STEP      L**3/T          PACKAGE NAME    
     ------------------                 ------------------------                     ----------------

           IN:                                      IN:
           ---                                      ---
                RCHA =      498750.0000                  RCHA =      498750.0000     RCHA_0                           
                 CHD =           0.0000                   CHD =           0.0000     CHD_0                            

            TOTAL IN =      498750.0000              TOTAL IN =      498750.0000

          OUT:                                     OUT:
          ----                                     ----
                RCHA =           0.0000                  RCHA =           0.0000     RCHA_0                           
                 CHD =      498749.2177                   CHD =      498749.2177     CHD_0                            

           TOTAL OUT =      498749.2177             TOTAL OUT =      498749.2177

            IN - OUT =           0.7823              IN - OUT =           0.7823

 PERCENT DISCREPANCY =           0.00     PERCENT DISCREPANCY =           0.00




         TIME SUMMARY AT END OF TIME STEP    1 IN STRESS PERIOD    1
                    SECONDS     MINUTES      HOURS       DAYS        YEARS
                    -----------------------------------------------------------
   TIME STEP LENGTH  86400.      1440.0      24.000      1.0000     2.73785E-03
 STRESS PERIOD TIME  86400.      1440.0      24.000      1.0000     2.73785E-03
         TOTAL TIME  86400.      1440.0      24.000      1.0000     2.73785E-03


end timestep

