Get the name of the MODPATH simulation file.
Read the first two records of the simulation file to get mpnamFile and mplistFile ...
Allocate rectangular unstructured grid component.
Allocate time discretization data component ...
Allocate disMf6Grid.
Read DIS binary grid file.
Read time discretization data component ...
 
 ----------------------------------------------------------
 Cell connection data:
 ----------------------------------------------------------
 Format has two lines for each cell, listed by cell number.
 Line 1: Cell connections
 Line 1: Face assignment codes
 ----------------------------------------------------------
        1       2      26    1001
        0   20101   30101   50101
 
        2       1       3      27    1002
        0   10101   20101   30101   50101
 
        3       2       4      28    1003
        0   10101   20101   30101   50101
 
        4       3       5      29    1004
        0   10101   20101   30101   50101
 
        5       4       6      30    1005
        0   10101   20101   30101   50101
 
        6       5       7      31    1006
        0   10101   20101   30101   50101
 
        7       6       8      32    1007
        0   10101   20101   30101   50101
 
        8       7       9      33    1008
        0   10101   20101   30101   50101
 
        9       8      10      34    1009
        0   10101   20101   30101   50101
 
       10       9      11      35    1010
        0   10101   20101   30101   50101
 
       11      10      12      36    1011
        0   10101   20101   30101   50101
 
       12      11      13      37    1012
        0   10101   20101   30101   50101
 
       13      12      14      38    1013
        0   10101   20101   30101   50101
 
       14      13      15      39    1014
        0   10101   20101   30101   50101
 
       15      14      16      40    1015
        0   10101   20101   30101   50101
 
       16      15      17      41    1016
        0   10101   20101   30101   50101
 
       17      16      18      42    1017
        0   10101   20101   30101   50101
 
       18      17      19      43    1018
        0   10101   20101   30101   50101
 
       19      18      20      44    1019
        0   10101   20101   30101   50101
 
       20      19      21      45    1020
        0   10101   20101   30101   50101
 
       21      20      22      46    1021
        0   10101   20101   30101   50101
 
       22      21      23      47    1022
        0   10101   20101   30101   50101
 
       23      22      24      48    1023
        0   10101   20101   30101   50101
 
       24      23      25      49    1024
        0   10101   20101   30101   50101
 
       25      24      50    1025
        0   10101   30101   50101
 
       26       1      27      51    1026
        0   40101   20101   30101   50101
 
       27       2      26      28      52    1027
        0   40101   10101   20101   30101   50101
 
       28       3      27      29      53    1028
        0   40101   10101   20101   30101   50101
 
       29       4      28      30      54    1029
        0   40101   10101   20101   30101   50101
 
       30       5      29      31      55    1030
        0   40101   10101   20101   30101   50101
 
       31       6      30      32      56    1031
        0   40101   10101   20101   30101   50101
 
       32       7      31      33      57    1032
        0   40101   10101   20101   30101   50101
 
       33       8      32      34      58    1033
        0   40101   10101   20101   30101   50101
 
       34       9      33      35      59    1034
        0   40101   10101   20101   30101   50101
 
       35      10      34      36      60    1035
        0   40101   10101   20101   30101   50101
 
       36      11      35      37      61    1036
        0   40101   10101   20101   30101   50101
 
       37      12      36      38      62    1037
        0   40101   10101   20101   30101   50101
 
       38      13      37      39      63    1038
        0   40101   10101   20101   30101   50101
 
       39      14      38      40      64    1039
        0   40101   10101   20101   30101   50101
 
       40      15      39      41      65    1040
        0   40101   10101   20101   30101   50101
 
       41      16      40      42      66    1041
        0   40101   10101   20101   30101   50101
 
       42      17      41      43      67    1042
        0   40101   10101   20101   30101   50101
 
       43      18      42      44      68    1043
        0   40101   10101   20101   30101   50101
 
       44      19      43      45      69    1044
        0   40101   10101   20101   30101   50101
 
       45      20      44      46      70    1045
        0   40101   10101   20101   30101   50101
 
       46      21      45      47      71    1046
        0   40101   10101   20101   30101   50101
 
       47      22      46      48      72    1047
        0   40101   10101   20101   30101   50101
 
       48      23      47      49      73    1048
        0   40101   10101   20101   30101   50101
 
       49      24      48      50      74    1049
        0   40101   10101   20101   30101   50101
 
       50      25      49      75    1050
        0   40101   10101   30101   50101
 
       51      26      52      76    1051
        0   40101   20101   30101   50101
 
       52      27      51      53      77    1052
        0   40101   10101   20101   30101   50101
 
       53      28      52      54      78    1053
        0   40101   10101   20101   30101   50101
 
       54      29      53      55    1054
        0   40101   10101   20101   50101
 
       55      30      54      56    1055
        0   40101   10101   20101   50101
 
       56      31      55      57    1056
        0   40101   10101   20101   50101
 
       57      32      56      58    1057
        0   40101   10101   20101   50101
 
       58      33      57      59      83    1058
        0   40101   10101   20101   30101   50101
 
       59      34      58      60      84    1059
        0   40101   10101   20101   30101   50101
 
       60      35      59      61      85    1060
        0   40101   10101   20101   30101   50101
 
       61      36      60      62      86    1061
        0   40101   10101   20101   30101   50101
 
       62      37      61      63      87    1062
        0   40101   10101   20101   30101   50101
 
       63      38      62      64      88    1063
        0   40101   10101   20101   30101   50101
 
       64      39      63      65      89    1064
        0   40101   10101   20101   30101   50101
 
       65      40      64      66      90    1065
        0   40101   10101   20101   30101   50101
 
       66      41      65      67      91    1066
        0   40101   10101   20101   30101   50101
 
       67      42      66      68      92    1067
        0   40101   10101   20101   30101   50101
 
       68      43      67      69      93    1068
        0   40101   10101   20101   30101   50101
 
       69      44      68      70      94    1069
        0   40101   10101   20101   30101   50101
 
       70      45      69      71      95    1070
        0   40101   10101   20101   30101   50101
 
       71      46      70      72      96    1071
        0   40101   10101   20101   30101   50101
 
       72      47      71      73      97    1072
        0   40101   10101   20101   30101   50101
 
       73      48      72      74      98    1073
        0   40101   10101   20101   30101   50101
 
       74      49      73      75      99    1074
        0   40101   10101   20101   30101   50101
 
       75      50      74     100    1075
        0   40101   10101   30101   50101
 
       76      51      77     101    1076
        0   40101   20101   30101   50101
 
       77      52      76      78     102    1077
        0   40101   10101   20101   30101   50101
 
       78      53      77    1078
        0   40101   10101   50101
 


 


 


 


 
       83      58      84     108    1083
        0   40101   20101   30101   50101
 
       84      59      83      85     109    1084
        0   40101   10101   20101   30101   50101
 
       85      60      84      86     110    1085
        0   40101   10101   20101   30101   50101
 
       86      61      85      87     111    1086
        0   40101   10101   20101   30101   50101
 
       87      62      86      88     112    1087
        0   40101   10101   20101   30101   50101
 
       88      63      87      89     113    1088
        0   40101   10101   20101   30101   50101
 
       89      64      88      90     114    1089
        0   40101   10101   20101   30101   50101
 
       90      65      89      91     115    1090
        0   40101   10101   20101   30101   50101
 
       91      66      90      92     116    1091
        0   40101   10101   20101   30101   50101
 
       92      67      91      93     117    1092
        0   40101   10101   20101   30101   50101
 
       93      68      92      94     118    1093
        0   40101   10101   20101   30101   50101
 
       94      69      93      95     119    1094
        0   40101   10101   20101   30101   50101
 
       95      70      94      96     120    1095
        0   40101   10101   20101   30101   50101
 
       96      71      95      97     121    1096
        0   40101   10101   20101   30101   50101
 
       97      72      96      98     122    1097
        0   40101   10101   20101   30101   50101
 
       98      73      97      99     123    1098
        0   40101   10101   20101   30101   50101
 
       99      74      98     100     124    1099
        0   40101   10101   20101   30101   50101
 
      100      75      99     125    1100
        0   40101   10101   30101   50101
 
      101      76     102     126    1101
        0   40101   20101   30101   50101
 
      102      77     101     127    1102
        0   40101   10101   30101   50101
 


 


 


 


 


 
      108      83     109     133    1108
        0   40101   20101   30101   50101
 
      109      84     108     110     134    1109
        0   40101   10101   20101   30101   50101
 
      110      85     109     111     135    1110
        0   40101   10101   20101   30101   50101
 
      111      86     110     112     136    1111
        0   40101   10101   20101   30101   50101
 
      112      87     111     113     137    1112
        0   40101   10101   20101   30101   50101
 
      113      88     112     114     138    1113
        0   40101   10101   20101   30101   50101
 
      114      89     113     115     139    1114
        0   40101   10101   20101   30101   50101
 
      115      90     114     116     140    1115
        0   40101   10101   20101   30101   50101
 
      116      91     115     117     141    1116
        0   40101   10101   20101   30101   50101
 
      117      92     116     118     142    1117
        0   40101   10101   20101   30101   50101
 
      118      93     117     119     143    1118
        0   40101   10101   20101   30101   50101
 
      119      94     118     120     144    1119
        0   40101   10101   20101   30101   50101
 
      120      95     119     121     145    1120
        0   40101   10101   20101   30101   50101
 
      121      96     120     122     146    1121
        0   40101   10101   20101   30101   50101
 
      122      97     121     123     147    1122
        0   40101   10101   20101   30101   50101
 
      123      98     122     124     148    1123
        0   40101   10101   20101   30101   50101
 
      124      99     123     125     149    1124
        0   40101   10101   20101   30101   50101
 
      125     100     124     150    1125
        0   40101   10101   30101   50101
 
      126     101     127     151    1126
        0   40101   20101   30101   50101
 
      127     102     126     152    1127
        0   40101   10101   30101   50101
 


 


 


 


 


 
      133     108     134     158    1133
        0   40101   20101   30101   50101
 
      134     109     133     135     159    1134
        0   40101   10101   20101   30101   50101
 
      135     110     134     136     160    1135
        0   40101   10101   20101   30101   50101
 
      136     111     135     137     161    1136
        0   40101   10101   20101   30101   50101
 
      137     112     136     138     162    1137
        0   40101   10101   20101   30101   50101
 
      138     113     137     139     163    1138
        0   40101   10101   20101   30101   50101
 
      139     114     138     140     164    1139
        0   40101   10101   20101   30101   50101
 
      140     115     139     141     165    1140
        0   40101   10101   20101   30101   50101
 
      141     116     140     142     166    1141
        0   40101   10101   20101   30101   50101
 
      142     117     141     143     167    1142
        0   40101   10101   20101   30101   50101
 
      143     118     142     144     168    1143
        0   40101   10101   20101   30101   50101
 
      144     119     143     145     169    1144
        0   40101   10101   20101   30101   50101
 
      145     120     144     146     170    1145
        0   40101   10101   20101   30101   50101
 
      146     121     145     147     171    1146
        0   40101   10101   20101   30101   50101
 
      147     122     146     148     172    1147
        0   40101   10101   20101   30101   50101
 
      148     123     147     149     173    1148
        0   40101   10101   20101   30101   50101
 
      149     124     148     150     174    1149
        0   40101   10101   20101   30101   50101
 
      150     125     149     175    1150
        0   40101   10101   30101   50101
 
      151     126     152     176    1151
        0   40101   20101   30101   50101
 
      152     127     151     177    1152
        0   40101   10101   30101   50101
 


 


 


 


 


 
      158     133     159     183    1158
        0   40101   20101   30101   50101
 
      159     134     158     160     184    1159
        0   40101   10101   20101   30101   50101
 
      160     135     159     161     185    1160
        0   40101   10101   20101   30101   50101
 
      161     136     160     162     186    1161
        0   40101   10101   20101   30101   50101
 
      162     137     161     163     187    1162
        0   40101   10101   20101   30101   50101
 
      163     138     162     164     188    1163
        0   40101   10101   20101   30101   50101
 
      164     139     163     165     189    1164
        0   40101   10101   20101   30101   50101
 
      165     140     164     166     190    1165
        0   40101   10101   20101   30101   50101
 
      166     141     165     167     191    1166
        0   40101   10101   20101   30101   50101
 
      167     142     166     168     192    1167
        0   40101   10101   20101   30101   50101
 
      168     143     167     169     193    1168
        0   40101   10101   20101   30101   50101
 
      169     144     168     170     194    1169
        0   40101   10101   20101   30101   50101
 
      170     145     169     171     195    1170
        0   40101   10101   20101   30101   50101
 
      171     146     170     172     196    1171
        0   40101   10101   20101   30101   50101
 
      172     147     171     173     197    1172
        0   40101   10101   20101   30101   50101
 
      173     148     172     174     198    1173
        0   40101   10101   20101   30101   50101
 
      174     149     173     175     199    1174
        0   40101   10101   20101   30101   50101
 
      175     150     174     200    1175
        0   40101   10101   30101   50101
 
      176     151     177     201    1176
        0   40101   20101   30101   50101
 
      177     152     176     202    1177
        0   40101   10101   30101   50101
 


 


 


 


 


 
      183     158     184     208    1183
        0   40101   20101   30101   50101
 
      184     159     183     185     209    1184
        0   40101   10101   20101   30101   50101
 
      185     160     184     186     210    1185
        0   40101   10101   20101   30101   50101
 
      186     161     185     187     211    1186
        0   40101   10101   20101   30101   50101
 
      187     162     186     188     212    1187
        0   40101   10101   20101   30101   50101
 
      188     163     187     189     213    1188
        0   40101   10101   20101   30101   50101
 
      189     164     188     190     214    1189
        0   40101   10101   20101   30101   50101
 
      190     165     189     191     215    1190
        0   40101   10101   20101   30101   50101
 
      191     166     190     192     216    1191
        0   40101   10101   20101   30101   50101
 
      192     167     191     193     217    1192
        0   40101   10101   20101   30101   50101
 
      193     168     192     194     218    1193
        0   40101   10101   20101   30101   50101
 
      194     169     193     195     219    1194
        0   40101   10101   20101   30101   50101
 
      195     170     194     196     220    1195
        0   40101   10101   20101   30101   50101
 
      196     171     195     197     221    1196
        0   40101   10101   20101   30101   50101
 
      197     172     196     198     222    1197
        0   40101   10101   20101   30101   50101
 
      198     173     197     199     223    1198
        0   40101   10101   20101   30101   50101
 
      199     174     198     200     224    1199
        0   40101   10101   20101   30101   50101
 
      200     175     199     225    1200
        0   40101   10101   30101   50101
 
      201     176     202     226    1201
        0   40101   20101   30101   50101
 
      202     177     201     227    1202
        0   40101   10101   30101   50101
 


 


 


 


 


 
      208     183     209    1208
        0   40101   20101   50101
 
      209     184     208     210     234    1209
        0   40101   10101   20101   30101   50101
 
      210     185     209     211     235    1210
        0   40101   10101   20101   30101   50101
 
      211     186     210     212     236    1211
        0   40101   10101   20101   30101   50101
 
      212     187     211     213     237    1212
        0   40101   10101   20101   30101   50101
 
      213     188     212     214     238    1213
        0   40101   10101   20101   30101   50101
 
      214     189     213     215     239    1214
        0   40101   10101   20101   30101   50101
 
      215     190     214     216     240    1215
        0   40101   10101   20101   30101   50101
 
      216     191     215     217     241    1216
        0   40101   10101   20101   30101   50101
 
      217     192     216     218     242    1217
        0   40101   10101   20101   30101   50101
 
      218     193     217     219     243    1218
        0   40101   10101   20101   30101   50101
 
      219     194     218     220     244    1219
        0   40101   10101   20101   30101   50101
 
      220     195     219     221     245    1220
        0   40101   10101   20101   30101   50101
 
      221     196     220     222     246    1221
        0   40101   10101   20101   30101   50101
 
      222     197     221     223     247    1222
        0   40101   10101   20101   30101   50101
 
      223     198     222     224     248    1223
        0   40101   10101   20101   30101   50101
 
      224     199     223     225     249    1224
        0   40101   10101   20101   30101   50101
 
      225     200     224     250    1225
        0   40101   10101   30101   50101
 
      226     201     227     251    1226
        0   40101   20101   30101   50101
 
      227     202     226     252    1227
        0   40101   10101   30101   50101
 


 


 


 


 


 


 
      234     209     235     259    1234
        0   40101   20101   30101   50101
 
      235     210     234     236     260    1235
        0   40101   10101   20101   30101   50101
 
      236     211     235     237     261    1236
        0   40101   10101   20101   30101   50101
 
      237     212     236     238     262    1237
        0   40101   10101   20101   30101   50101
 
      238     213     237     239     263    1238
        0   40101   10101   20101   30101   50101
 
      239     214     238     240     264    1239
        0   40101   10101   20101   30101   50101
 
      240     215     239     241     265    1240
        0   40101   10101   20101   30101   50101
 
      241     216     240     242     266    1241
        0   40101   10101   20101   30101   50101
 
      242     217     241     243     267    1242
        0   40101   10101   20101   30101   50101
 
      243     218     242     244     268    1243
        0   40101   10101   20101   30101   50101
 
      244     219     243     245     269    1244
        0   40101   10101   20101   30101   50101
 
      245     220     244     246     270    1245
        0   40101   10101   20101   30101   50101
 
      246     221     245     247     271    1246
        0   40101   10101   20101   30101   50101
 
      247     222     246     248     272    1247
        0   40101   10101   20101   30101   50101
 
      248     223     247     249     273    1248
        0   40101   10101   20101   30101   50101
 
      249     224     248     250     274    1249
        0   40101   10101   20101   30101   50101
 
      250     225     249     275    1250
        0   40101   10101   30101   50101
 
      251     226     252     276    1251
        0   40101   20101   30101   50101
 
      252     227     251     253     277    1252
        0   40101   10101   20101   30101   50101
 
      253     252     278    1253
        0   10101   30101   50101
 


 


 


 


 


 
      259     234     260    1259
        0   40101   20101   50101
 
      260     235     259     261     285    1260
        0   40101   10101   20101   30101   50101
 
      261     236     260     262     286    1261
        0   40101   10101   20101   30101   50101
 
      262     237     261     263     287    1262
        0   40101   10101   20101   30101   50101
 
      263     238     262     264     288    1263
        0   40101   10101   20101   30101   50101
 
      264     239     263     265     289    1264
        0   40101   10101   20101   30101   50101
 
      265     240     264     266     290    1265
        0   40101   10101   20101   30101   50101
 
      266     241     265     267     291    1266
        0   40101   10101   20101   30101   50101
 
      267     242     266     268     292    1267
        0   40101   10101   20101   30101   50101
 
      268     243     267     269     293    1268
        0   40101   10101   20101   30101   50101
 
      269     244     268     270     294    1269
        0   40101   10101   20101   30101   50101
 
      270     245     269     271     295    1270
        0   40101   10101   20101   30101   50101
 
      271     246     270     272     296    1271
        0   40101   10101   20101   30101   50101
 
      272     247     271     273     297    1272
        0   40101   10101   20101   30101   50101
 
      273     248     272     274     298    1273
        0   40101   10101   20101   30101   50101
 
      274     249     273     275     299    1274
        0   40101   10101   20101   30101   50101
 
      275     250     274     300    1275
        0   40101   10101   30101   50101
 
      276     251     277     301    1276
        0   40101   20101   30101   50101
 
      277     252     276     278     302    1277
        0   40101   10101   20101   30101   50101
 
      278     253     277     303    1278
        0   40101   10101   30101   50101
 


 


 


 


 


 


 
      285     260     286     310    1285
        0   40101   20101   30101   50101
 
      286     261     285     287     311    1286
        0   40101   10101   20101   30101   50101
 
      287     262     286     288     312    1287
        0   40101   10101   20101   30101   50101
 
      288     263     287     289     313    1288
        0   40101   10101   20101   30101   50101
 
      289     264     288     290     314    1289
        0   40101   10101   20101   30101   50101
 
      290     265     289     291     315    1290
        0   40101   10101   20101   30101   50101
 
      291     266     290     292     316    1291
        0   40101   10101   20101   30101   50101
 
      292     267     291     293     317    1292
        0   40101   10101   20101   30101   50101
 
      293     268     292     294     318    1293
        0   40101   10101   20101   30101   50101
 
      294     269     293     295     319    1294
        0   40101   10101   20101   30101   50101
 
      295     270     294     296     320    1295
        0   40101   10101   20101   30101   50101
 
      296     271     295     297     321    1296
        0   40101   10101   20101   30101   50101
 
      297     272     296     298     322    1297
        0   40101   10101   20101   30101   50101
 
      298     273     297     299     323    1298
        0   40101   10101   20101   30101   50101
 
      299     274     298     300     324    1299
        0   40101   10101   20101   30101   50101
 
      300     275     299     325    1300
        0   40101   10101   30101   50101
 
      301     276     302     326    1301
        0   40101   20101   30101   50101
 
      302     277     301     303     327    1302
        0   40101   10101   20101   30101   50101
 
      303     278     302     304     328    1303
        0   40101   10101   20101   30101   50101
 
      304     303     329    1304
        0   10101   30101   50101
 


 


 


 


 


 
      310     285     311     335    1310
        0   40101   20101   30101   50101
 
      311     286     310     312     336    1311
        0   40101   10101   20101   30101   50101
 
      312     287     311     313     337    1312
        0   40101   10101   20101   30101   50101
 
      313     288     312     314     338    1313
        0   40101   10101   20101   30101   50101
 
      314     289     313     315     339    1314
        0   40101   10101   20101   30101   50101
 
      315     290     314     316     340    1315
        0   40101   10101   20101   30101   50101
 
      316     291     315     317     341    1316
        0   40101   10101   20101   30101   50101
 
      317     292     316     318     342    1317
        0   40101   10101   20101   30101   50101
 
      318     293     317     319     343    1318
        0   40101   10101   20101   30101   50101
 
      319     294     318     320     344    1319
        0   40101   10101   20101   30101   50101
 
      320     295     319     321     345    1320
        0   40101   10101   20101   30101   50101
 
      321     296     320     322     346    1321
        0   40101   10101   20101   30101   50101
 
      322     297     321     323     347    1322
        0   40101   10101   20101   30101   50101
 
      323     298     322     324     348    1323
        0   40101   10101   20101   30101   50101
 
      324     299     323     325     349    1324
        0   40101   10101   20101   30101   50101
 
      325     300     324     350    1325
        0   40101   10101   30101   50101
 
      326     301     327     351    1326
        0   40101   20101   30101   50101
 
      327     302     326     328     352    1327
        0   40101   10101   20101   30101   50101
 
      328     303     327     329     353    1328
        0   40101   10101   20101   30101   50101
 
      329     304     328     354    1329
        0   40101   10101   30101   50101
 


 


 


 


 


 
      335     310     336     360    1335
        0   40101   20101   30101   50101
 
      336     311     335     337     361    1336
        0   40101   10101   20101   30101   50101
 
      337     312     336     338     362    1337
        0   40101   10101   20101   30101   50101
 
      338     313     337     339     363    1338
        0   40101   10101   20101   30101   50101
 
      339     314     338     340     364    1339
        0   40101   10101   20101   30101   50101
 
      340     315     339     341     365    1340
        0   40101   10101   20101   30101   50101
 
      341     316     340     342     366    1341
        0   40101   10101   20101   30101   50101
 
      342     317     341     343     367    1342
        0   40101   10101   20101   30101   50101
 
      343     318     342     344     368    1343
        0   40101   10101   20101   30101   50101
 
      344     319     343     345     369    1344
        0   40101   10101   20101   30101   50101
 
      345     320     344     346     370    1345
        0   40101   10101   20101   30101   50101
 
      346     321     345     347     371    1346
        0   40101   10101   20101   30101   50101
 
      347     322     346     348     372    1347
        0   40101   10101   20101   30101   50101
 
      348     323     347     349     373    1348
        0   40101   10101   20101   30101   50101
 
      349     324     348     350     374    1349
        0   40101   10101   20101   30101   50101
 
      350     325     349     375    1350
        0   40101   10101   30101   50101
 
      351     326     352     376    1351
        0   40101   20101   30101   50101
 
      352     327     351     353     377    1352
        0   40101   10101   20101   30101   50101
 
      353     328     352     354     378    1353
        0   40101   10101   20101   30101   50101
 
      354     329     353     379    1354
        0   40101   10101   30101   50101
 


 


 


 


 


 
      360     335     361     385    1360
        0   40101   20101   30101   50101
 
      361     336     360     362     386    1361
        0   40101   10101   20101   30101   50101
 
      362     337     361     363     387    1362
        0   40101   10101   20101   30101   50101
 
      363     338     362     364     388    1363
        0   40101   10101   20101   30101   50101
 
      364     339     363     365     389    1364
        0   40101   10101   20101   30101   50101
 
      365     340     364     366     390    1365
        0   40101   10101   20101   30101   50101
 
      366     341     365     367     391    1366
        0   40101   10101   20101   30101   50101
 
      367     342     366     368     392    1367
        0   40101   10101   20101   30101   50101
 
      368     343     367     369     393    1368
        0   40101   10101   20101   30101   50101
 
      369     344     368     370     394    1369
        0   40101   10101   20101   30101   50101
 
      370     345     369     371     395    1370
        0   40101   10101   20101   30101   50101
 
      371     346     370     372     396    1371
        0   40101   10101   20101   30101   50101
 
      372     347     371     373     397    1372
        0   40101   10101   20101   30101   50101
 
      373     348     372     374     398    1373
        0   40101   10101   20101   30101   50101
 
      374     349     373     375     399    1374
        0   40101   10101   20101   30101   50101
 
      375     350     374     400    1375
        0   40101   10101   30101   50101
 
      376     351     377     401    1376
        0   40101   20101   30101   50101
 
      377     352     376     378     402    1377
        0   40101   10101   20101   30101   50101
 
      378     353     377     379     403    1378
        0   40101   10101   20101   30101   50101
 
      379     354     378     380     404    1379
        0   40101   10101   20101   30101   50101
 
      380     379     405    1380
        0   10101   30101   50101
 


 


 


 


 
      385     360     386     410    1385
        0   40101   20101   30101   50101
 
      386     361     385     387     411    1386
        0   40101   10101   20101   30101   50101
 
      387     362     386     388     412    1387
        0   40101   10101   20101   30101   50101
 
      388     363     387     389     413    1388
        0   40101   10101   20101   30101   50101
 
      389     364     388     390     414    1389
        0   40101   10101   20101   30101   50101
 
      390     365     389     391     415    1390
        0   40101   10101   20101   30101   50101
 
      391     366     390     392     416    1391
        0   40101   10101   20101   30101   50101
 
      392     367     391     393     417    1392
        0   40101   10101   20101   30101   50101
 
      393     368     392     394     418    1393
        0   40101   10101   20101   30101   50101
 
      394     369     393     395     419    1394
        0   40101   10101   20101   30101   50101
 
      395     370     394     396     420    1395
        0   40101   10101   20101   30101   50101
 
      396     371     395     397     421    1396
        0   40101   10101   20101   30101   50101
 
      397     372     396     398     422    1397
        0   40101   10101   20101   30101   50101
 
      398     373     397     399     423    1398
        0   40101   10101   20101   30101   50101
 
      399     374     398     400     424    1399
        0   40101   10101   20101   30101   50101
 
      400     375     399     425    1400
        0   40101   10101   30101   50101
 
      401     376     402     426    1401
        0   40101   20101   30101   50101
 
      402     377     401     403     427    1402
        0   40101   10101   20101   30101   50101
 
      403     378     402     404     428    1403
        0   40101   10101   20101   30101   50101
 
      404     379     403     405     429    1404
        0   40101   10101   20101   30101   50101
 
      405     380     404     406     430    1405
        0   40101   10101   20101   30101   50101
 
      406     405     407     431    1406
        0   10101   20101   30101   50101
 
      407     406     408     432    1407
        0   10101   20101   30101   50101
 
      408     407     409     433    1408
        0   10101   20101   30101   50101
 
      409     408     410     434    1409
        0   10101   20101   30101   50101
 
      410     385     409     411     435    1410
        0   40101   10101   20101   30101   50101
 
      411     386     410     412     436    1411
        0   40101   10101   20101   30101   50101
 
      412     387     411     413     437    1412
        0   40101   10101   20101   30101   50101
 
      413     388     412     414     438    1413
        0   40101   10101   20101   30101   50101
 
      414     389     413     415     439    1414
        0   40101   10101   20101   30101   50101
 
      415     390     414     416     440    1415
        0   40101   10101   20101   30101   50101
 
      416     391     415     417     441    1416
        0   40101   10101   20101   30101   50101
 
      417     392     416     418     442    1417
        0   40101   10101   20101   30101   50101
 
      418     393     417     419     443    1418
        0   40101   10101   20101   30101   50101
 
      419     394     418     420     444    1419
        0   40101   10101   20101   30101   50101
 
      420     395     419     421     445    1420
        0   40101   10101   20101   30101   50101
 
      421     396     420     422     446    1421
        0   40101   10101   20101   30101   50101
 
      422     397     421     423     447    1422
        0   40101   10101   20101   30101   50101
 
      423     398     422     424     448    1423
        0   40101   10101   20101   30101   50101
 
      424     399     423     425     449    1424
        0   40101   10101   20101   30101   50101
 
      425     400     424     450    1425
        0   40101   10101   30101   50101
 
      426     401     427     451    1426
        0   40101   20101   30101   50101
 
      427     402     426     428     452    1427
        0   40101   10101   20101   30101   50101
 
      428     403     427     429     453    1428
        0   40101   10101   20101   30101   50101
 
      429     404     428     430     454    1429
        0   40101   10101   20101   30101   50101
 
      430     405     429     431     455    1430
        0   40101   10101   20101   30101   50101
 
      431     406     430     432     456    1431
        0   40101   10101   20101   30101   50101
 
      432     407     431     433     457    1432
        0   40101   10101   20101   30101   50101
 
      433     408     432     434     458    1433
        0   40101   10101   20101   30101   50101
 
      434     409     433     435     459    1434
        0   40101   10101   20101   30101   50101
 
      435     410     434     436     460    1435
        0   40101   10101   20101   30101   50101
 
      436     411     435     437     461    1436
        0   40101   10101   20101   30101   50101
 
      437     412     436     438     462    1437
        0   40101   10101   20101   30101   50101
 
      438     413     437     439     463    1438
        0   40101   10101   20101   30101   50101
 
      439     414     438     440     464    1439
        0   40101   10101   20101   30101   50101
 
      440     415     439     441     465    1440
        0   40101   10101   20101   30101   50101
 
      441     416     440     442     466    1441
        0   40101   10101   20101   30101   50101
 
      442     417     441     443     467    1442
        0   40101   10101   20101   30101   50101
 
      443     418     442     444     468    1443
        0   40101   10101   20101   30101   50101
 
      444     419     443     445     469    1444
        0   40101   10101   20101   30101   50101
 
      445     420     444     446     470    1445
        0   40101   10101   20101   30101   50101
 
      446     421     445     447     471    1446
        0   40101   10101   20101   30101   50101
 
      447     422     446     448     472    1447
        0   40101   10101   20101   30101   50101
 
      448     423     447     449     473    1448
        0   40101   10101   20101   30101   50101
 
      449     424     448     450     474    1449
        0   40101   10101   20101   30101   50101
 
      450     425     449     475    1450
        0   40101   10101   30101   50101
 
      451     426     452     476    1451
        0   40101   20101   30101   50101
 
      452     427     451     453     477    1452
        0   40101   10101   20101   30101   50101
 
      453     428     452     454     478    1453
        0   40101   10101   20101   30101   50101
 
      454     429     453     455     479    1454
        0   40101   10101   20101   30101   50101
 
      455     430     454     456     480    1455
        0   40101   10101   20101   30101   50101
 
      456     431     455     457     481    1456
        0   40101   10101   20101   30101   50101
 
      457     432     456     458     482    1457
        0   40101   10101   20101   30101   50101
 
      458     433     457     459     483    1458
        0   40101   10101   20101   30101   50101
 
      459     434     458     460     484    1459
        0   40101   10101   20101   30101   50101
 
      460     435     459     461     485    1460
        0   40101   10101   20101   30101   50101
 
      461     436     460     462     486    1461
        0   40101   10101   20101   30101   50101
 
      462     437     461     463     487    1462
        0   40101   10101   20101   30101   50101
 
      463     438     462     464     488    1463
        0   40101   10101   20101   30101   50101
 
      464     439     463     465     489    1464
        0   40101   10101   20101   30101   50101
 
      465     440     464     466     490    1465
        0   40101   10101   20101   30101   50101
 
      466     441     465     467     491    1466
        0   40101   10101   20101   30101   50101
 
      467     442     466     468     492    1467
        0   40101   10101   20101   30101   50101
 
      468     443     467     469     493    1468
        0   40101   10101   20101   30101   50101
 
      469     444     468     470     494    1469
        0   40101   10101   20101   30101   50101
 
      470     445     469     471     495    1470
        0   40101   10101   20101   30101   50101
 
      471     446     470     472     496    1471
        0   40101   10101   20101   30101   50101
 
      472     447     471     473     497    1472
        0   40101   10101   20101   30101   50101
 
      473     448     472     474     498    1473
        0   40101   10101   20101   30101   50101
 
      474     449     473     475     499    1474
        0   40101   10101   20101   30101   50101
 
      475     450     474     500    1475
        0   40101   10101   30101   50101
 
      476     451     477     501    1476
        0   40101   20101   30101   50101
 
      477     452     476     478     502    1477
        0   40101   10101   20101   30101   50101
 
      478     453     477     479     503    1478
        0   40101   10101   20101   30101   50101
 
      479     454     478     480     504    1479
        0   40101   10101   20101   30101   50101
 
      480     455     479     481     505    1480
        0   40101   10101   20101   30101   50101
 
      481     456     480     482     506    1481
        0   40101   10101   20101   30101   50101
 
      482     457     481     483     507    1482
        0   40101   10101   20101   30101   50101
 
      483     458     482     484     508    1483
        0   40101   10101   20101   30101   50101
 
      484     459     483     485     509    1484
        0   40101   10101   20101   30101   50101
 
      485     460     484     486     510    1485
        0   40101   10101   20101   30101   50101
 
      486     461     485     487     511    1486
        0   40101   10101   20101   30101   50101
 
      487     462     486     488     512    1487
        0   40101   10101   20101   30101   50101
 
      488     463     487     489     513    1488
        0   40101   10101   20101   30101   50101
 
      489     464     488     490     514    1489
        0   40101   10101   20101   30101   50101
 
      490     465     489     491     515    1490
        0   40101   10101   20101   30101   50101
 
      491     466     490     492     516    1491
        0   40101   10101   20101   30101   50101
 
      492     467     491     493     517    1492
        0   40101   10101   20101   30101   50101
 
      493     468     492     494     518    1493
        0   40101   10101   20101   30101   50101
 
      494     469     493     495     519    1494
        0   40101   10101   20101   30101   50101
 
      495     470     494     496     520    1495
        0   40101   10101   20101   30101   50101
 
      496     471     495     497     521    1496
        0   40101   10101   20101   30101   50101
 
      497     472     496     498     522    1497
        0   40101   10101   20101   30101   50101
 
      498     473     497     499     523    1498
        0   40101   10101   20101   30101   50101
 
      499     474     498     500     524    1499
        0   40101   10101   20101   30101   50101
 
      500     475     499     525    1500
        0   40101   10101   30101   50101
 
      501     476     502     526    1501
        0   40101   20101   30101   50101
 
      502     477     501     503     527    1502
        0   40101   10101   20101   30101   50101
 
      503     478     502     504     528    1503
        0   40101   10101   20101   30101   50101
 
      504     479     503     505     529    1504
        0   40101   10101   20101   30101   50101
 
      505     480     504     506     530    1505
        0   40101   10101   20101   30101   50101
 
      506     481     505     507     531    1506
        0   40101   10101   20101   30101   50101
 
      507     482     506     508     532    1507
        0   40101   10101   20101   30101   50101
 
      508     483     507     509     533    1508
        0   40101   10101   20101   30101   50101
 
      509     484     508     510     534    1509
        0   40101   10101   20101   30101   50101
 
      510     485     509     511     535    1510
        0   40101   10101   20101   30101   50101
 
      511     486     510     512     536    1511
        0   40101   10101   20101   30101   50101
 
      512     487     511     513     537    1512
        0   40101   10101   20101   30101   50101
 
      513     488     512     514     538    1513
        0   40101   10101   20101   30101   50101
 
      514     489     513     515     539    1514
        0   40101   10101   20101   30101   50101
 
      515     490     514     516     540    1515
        0   40101   10101   20101   30101   50101
 
      516     491     515     517     541    1516
        0   40101   10101   20101   30101   50101
 
      517     492     516     518     542    1517
        0   40101   10101   20101   30101   50101
 
      518     493     517     519     543    1518
        0   40101   10101   20101   30101   50101
 
      519     494     518     520     544    1519
        0   40101   10101   20101   30101   50101
 
      520     495     519     521     545    1520
        0   40101   10101   20101   30101   50101
 
      521     496     520     522     546    1521
        0   40101   10101   20101   30101   50101
 
      522     497     521     523     547    1522
        0   40101   10101   20101   30101   50101
 
      523     498     522     524     548    1523
        0   40101   10101   20101   30101   50101
 
      524     499     523     525     549    1524
        0   40101   10101   20101   30101   50101
 
      525     500     524     550    1525
        0   40101   10101   30101   50101
 
      526     501     527     551    1526
        0   40101   20101   30101   50101
 
      527     502     526     528     552    1527
        0   40101   10101   20101   30101   50101
 
      528     503     527     529     553    1528
        0   40101   10101   20101   30101   50101
 
      529     504     528     530     554    1529
        0   40101   10101   20101   30101   50101
 
      530     505     529     531     555    1530
        0   40101   10101   20101   30101   50101
 
      531     506     530     532     556    1531
        0   40101   10101   20101   30101   50101
 
      532     507     531     533     557    1532
        0   40101   10101   20101   30101   50101
 
      533     508     532     534     558    1533
        0   40101   10101   20101   30101   50101
 
      534     509     533     535     559    1534
        0   40101   10101   20101   30101   50101
 
      535     510     534     536     560    1535
        0   40101   10101   20101   30101   50101
 
      536     511     535     537     561    1536
        0   40101   10101   20101   30101   50101
 
      537     512     536     538     562    1537
        0   40101   10101   20101   30101   50101
 
      538     513     537     539     563    1538
        0   40101   10101   20101   30101   50101
 
      539     514     538     540     564    1539
        0   40101   10101   20101   30101   50101
 
      540     515     539     541     565    1540
        0   40101   10101   20101   30101   50101
 
      541     516     540     542     566    1541
        0   40101   10101   20101   30101   50101
 
      542     517     541     543     567    1542
        0   40101   10101   20101   30101   50101
 
      543     518     542     544     568    1543
        0   40101   10101   20101   30101   50101
 
      544     519     543     545     569    1544
        0   40101   10101   20101   30101   50101
 
      545     520     544     546     570    1545
        0   40101   10101   20101   30101   50101
 
      546     521     545     547     571    1546
        0   40101   10101   20101   30101   50101
 
      547     522     546     548     572    1547
        0   40101   10101   20101   30101   50101
 
      548     523     547     549     573    1548
        0   40101   10101   20101   30101   50101
 
      549     524     548     550     574    1549
        0   40101   10101   20101   30101   50101
 
      550     525     549     575    1550
        0   40101   10101   30101   50101
 
      551     526     552     576    1551
        0   40101   20101   30101   50101
 
      552     527     551     553     577    1552
        0   40101   10101   20101   30101   50101
 
      553     528     552     554     578    1553
        0   40101   10101   20101   30101   50101
 
      554     529     553     555     579    1554
        0   40101   10101   20101   30101   50101
 
      555     530     554     556     580    1555
        0   40101   10101   20101   30101   50101
 
      556     531     555     557     581    1556
        0   40101   10101   20101   30101   50101
 
      557     532     556     558     582    1557
        0   40101   10101   20101   30101   50101
 
      558     533     557     559     583    1558
        0   40101   10101   20101   30101   50101
 
      559     534     558     560     584    1559
        0   40101   10101   20101   30101   50101
 
      560     535     559     561     585    1560
        0   40101   10101   20101   30101   50101
 
      561     536     560     562     586    1561
        0   40101   10101   20101   30101   50101
 
      562     537     561     563     587    1562
        0   40101   10101   20101   30101   50101
 
      563     538     562     564     588    1563
        0   40101   10101   20101   30101   50101
 
      564     539     563     565     589    1564
        0   40101   10101   20101   30101   50101
 
      565     540     564     566     590    1565
        0   40101   10101   20101   30101   50101
 
      566     541     565     567     591    1566
        0   40101   10101   20101   30101   50101
 
      567     542     566     568     592    1567
        0   40101   10101   20101   30101   50101
 
      568     543     567     569     593    1568
        0   40101   10101   20101   30101   50101
 
      569     544     568     570     594    1569
        0   40101   10101   20101   30101   50101
 
      570     545     569     571     595    1570
        0   40101   10101   20101   30101   50101
 
      571     546     570     572     596    1571
        0   40101   10101   20101   30101   50101
 
      572     547     571     573     597    1572
        0   40101   10101   20101   30101   50101
 
      573     548     572     574     598    1573
        0   40101   10101   20101   30101   50101
 
      574     549     573     575     599    1574
        0   40101   10101   20101   30101   50101
 
      575     550     574     600    1575
        0   40101   10101   30101   50101
 
      576     551     577     601    1576
        0   40101   20101   30101   50101
 
      577     552     576     578     602    1577
        0   40101   10101   20101   30101   50101
 
      578     553     577     579     603    1578
        0   40101   10101   20101   30101   50101
 
      579     554     578     580     604    1579
        0   40101   10101   20101   30101   50101
 
      580     555     579     581     605    1580
        0   40101   10101   20101   30101   50101
 
      581     556     580     582     606    1581
        0   40101   10101   20101   30101   50101
 
      582     557     581     583     607    1582
        0   40101   10101   20101   30101   50101
 
      583     558     582     584     608    1583
        0   40101   10101   20101   30101   50101
 
      584     559     583     585     609    1584
        0   40101   10101   20101   30101   50101
 
      585     560     584     586     610    1585
        0   40101   10101   20101   30101   50101
 
      586     561     585     587     611    1586
        0   40101   10101   20101   30101   50101
 
      587     562     586     588     612    1587
        0   40101   10101   20101   30101   50101
 
      588     563     587     589     613    1588
        0   40101   10101   20101   30101   50101
 
      589     564     588     590     614    1589
        0   40101   10101   20101   30101   50101
 
      590     565     589     591     615    1590
        0   40101   10101   20101   30101   50101
 
      591     566     590     592     616    1591
        0   40101   10101   20101   30101   50101
 
      592     567     591     593     617    1592
        0   40101   10101   20101   30101   50101
 
      593     568     592     594     618    1593
        0   40101   10101   20101   30101   50101
 
      594     569     593     595     619    1594
        0   40101   10101   20101   30101   50101
 
      595     570     594     596     620    1595
        0   40101   10101   20101   30101   50101
 
      596     571     595     597     621    1596
        0   40101   10101   20101   30101   50101
 
      597     572     596     598     622    1597
        0   40101   10101   20101   30101   50101
 
      598     573     597     599     623    1598
        0   40101   10101   20101   30101   50101
 
      599     574     598     600     624    1599
        0   40101   10101   20101   30101   50101
 
      600     575     599     625    1600
        0   40101   10101   30101   50101
 
      601     576     602     626    1601
        0   40101   20101   30101   50101
 
      602     577     601     603     627    1602
        0   40101   10101   20101   30101   50101
 
      603     578     602     604     628    1603
        0   40101   10101   20101   30101   50101
 
      604     579     603     605     629    1604
        0   40101   10101   20101   30101   50101
 
      605     580     604     606     630    1605
        0   40101   10101   20101   30101   50101
 
      606     581     605     607     631    1606
        0   40101   10101   20101   30101   50101
 
      607     582     606     608     632    1607
        0   40101   10101   20101   30101   50101
 
      608     583     607     609     633    1608
        0   40101   10101   20101   30101   50101
 
      609     584     608     610     634    1609
        0   40101   10101   20101   30101   50101
 
      610     585     609     611     635    1610
        0   40101   10101   20101   30101   50101
 
      611     586     610     612     636    1611
        0   40101   10101   20101   30101   50101
 
      612     587     611     613     637    1612
        0   40101   10101   20101   30101   50101
 
      613     588     612     614     638    1613
        0   40101   10101   20101   30101   50101
 
      614     589     613     615     639    1614
        0   40101   10101   20101   30101   50101
 
      615     590     614     616     640    1615
        0   40101   10101   20101   30101   50101
 
      616     591     615     617     641    1616
        0   40101   10101   20101   30101   50101
 
      617     592     616     618     642    1617
        0   40101   10101   20101   30101   50101
 
      618     593     617     619     643    1618
        0   40101   10101   20101   30101   50101
 
      619     594     618     620     644    1619
        0   40101   10101   20101   30101   50101
 
      620     595     619     621     645    1620
        0   40101   10101   20101   30101   50101
 
      621     596     620     622     646    1621
        0   40101   10101   20101   30101   50101
 
      622     597     621     623     647    1622
        0   40101   10101   20101   30101   50101
 
      623     598     622     624     648    1623
        0   40101   10101   20101   30101   50101
 
      624     599     623     625     649    1624
        0   40101   10101   20101   30101   50101
 
      625     600     624     650    1625
        0   40101   10101   30101   50101
 
      626     601     627     651    1626
        0   40101   20101   30101   50101
 
      627     602     626     628     652    1627
        0   40101   10101   20101   30101   50101
 
      628     603     627     629     653    1628
        0   40101   10101   20101   30101   50101
 
      629     604     628     630     654    1629
        0   40101   10101   20101   30101   50101
 
      630     605     629     631     655    1630
        0   40101   10101   20101   30101   50101
 
      631     606     630     632     656    1631
        0   40101   10101   20101   30101   50101
 
      632     607     631     633     657    1632
        0   40101   10101   20101   30101   50101
 
      633     608     632     634     658    1633
        0   40101   10101   20101   30101   50101
 
      634     609     633     635     659    1634
        0   40101   10101   20101   30101   50101
 
      635     610     634     636     660    1635
        0   40101   10101   20101   30101   50101
 
      636     611     635     637     661    1636
        0   40101   10101   20101   30101   50101
 
      637     612     636     638     662    1637
        0   40101   10101   20101   30101   50101
 
      638     613     637     639     663    1638
        0   40101   10101   20101   30101   50101
 
      639     614     638     640     664    1639
        0   40101   10101   20101   30101   50101
 
      640     615     639     641     665    1640
        0   40101   10101   20101   30101   50101
 
      641     616     640     642     666    1641
        0   40101   10101   20101   30101   50101
 
      642     617     641     643     667    1642
        0   40101   10101   20101   30101   50101
 
      643     618     642     644     668    1643
        0   40101   10101   20101   30101   50101
 
      644     619     643     645     669    1644
        0   40101   10101   20101   30101   50101
 
      645     620     644     646     670    1645
        0   40101   10101   20101   30101   50101
 
      646     621     645     647     671    1646
        0   40101   10101   20101   30101   50101
 
      647     622     646     648     672    1647
        0   40101   10101   20101   30101   50101
 
      648     623     647     649     673    1648
        0   40101   10101   20101   30101   50101
 
      649     624     648     650     674    1649
        0   40101   10101   20101   30101   50101
 
      650     625     649     675    1650
        0   40101   10101   30101   50101
 
      651     626     652     676    1651
        0   40101   20101   30101   50101
 
      652     627     651     653     677    1652
        0   40101   10101   20101   30101   50101
 
      653     628     652     654     678    1653
        0   40101   10101   20101   30101   50101
 
      654     629     653     655     679    1654
        0   40101   10101   20101   30101   50101
 
      655     630     654     656     680    1655
        0   40101   10101   20101   30101   50101
 
      656     631     655     657     681    1656
        0   40101   10101   20101   30101   50101
 
      657     632     656     658     682    1657
        0   40101   10101   20101   30101   50101
 
      658     633     657     659     683    1658
        0   40101   10101   20101   30101   50101
 
      659     634     658     660     684    1659
        0   40101   10101   20101   30101   50101
 
      660     635     659     661     685    1660
        0   40101   10101   20101   30101   50101
 
      661     636     660     662     686    1661
        0   40101   10101   20101   30101   50101
 
      662     637     661     663     687    1662
        0   40101   10101   20101   30101   50101
 
      663     638     662     664     688    1663
        0   40101   10101   20101   30101   50101
 
      664     639     663     665     689    1664
        0   40101   10101   20101   30101   50101
 
      665     640     664     666     690    1665
        0   40101   10101   20101   30101   50101
 
      666     641     665     667     691    1666
        0   40101   10101   20101   30101   50101
 
      667     642     666     668     692    1667
        0   40101   10101   20101   30101   50101
 
      668     643     667     669     693    1668
        0   40101   10101   20101   30101   50101
 
      669     644     668     670     694    1669
        0   40101   10101   20101   30101   50101
 
      670     645     669     671     695    1670
        0   40101   10101   20101   30101   50101
 
      671     646     670     672     696    1671
        0   40101   10101   20101   30101   50101
 
      672     647     671     673     697    1672
        0   40101   10101   20101   30101   50101
 
      673     648     672     674     698    1673
        0   40101   10101   20101   30101   50101
 
      674     649     673     675     699    1674
        0   40101   10101   20101   30101   50101
 
      675     650     674     700    1675
        0   40101   10101   30101   50101
 
      676     651     677     701    1676
        0   40101   20101   30101   50101
 
      677     652     676     678     702    1677
        0   40101   10101   20101   30101   50101
 
      678     653     677     679     703    1678
        0   40101   10101   20101   30101   50101
 
      679     654     678     680     704    1679
        0   40101   10101   20101   30101   50101
 
      680     655     679     681     705    1680
        0   40101   10101   20101   30101   50101
 
      681     656     680     682     706    1681
        0   40101   10101   20101   30101   50101
 
      682     657     681     683     707    1682
        0   40101   10101   20101   30101   50101
 
      683     658     682     684     708    1683
        0   40101   10101   20101   30101   50101
 
      684     659     683     685     709    1684
        0   40101   10101   20101   30101   50101
 
      685     660     684     686     710    1685
        0   40101   10101   20101   30101   50101
 
      686     661     685     687     711    1686
        0   40101   10101   20101   30101   50101
 
      687     662     686     688     712    1687
        0   40101   10101   20101   30101   50101
 
      688     663     687     689     713    1688
        0   40101   10101   20101   30101   50101
 
      689     664     688     690     714    1689
        0   40101   10101   20101   30101   50101
 
      690     665     689     691     715    1690
        0   40101   10101   20101   30101   50101
 
      691     666     690     692     716    1691
        0   40101   10101   20101   30101   50101
 
      692     667     691     693     717    1692
        0   40101   10101   20101   30101   50101
 
      693     668     692     694     718    1693
        0   40101   10101   20101   30101   50101
 
      694     669     693     695     719    1694
        0   40101   10101   20101   30101   50101
 
      695     670     694     696     720    1695
        0   40101   10101   20101   30101   50101
 
      696     671     695     697     721    1696
        0   40101   10101   20101   30101   50101
 
      697     672     696     698     722    1697
        0   40101   10101   20101   30101   50101
 
      698     673     697     699     723    1698
        0   40101   10101   20101   30101   50101
 
      699     674     698     700     724    1699
        0   40101   10101   20101   30101   50101
 
      700     675     699     725    1700
        0   40101   10101   30101   50101
 
      701     676     702     726    1701
        0   40101   20101   30101   50101
 
      702     677     701     703     727    1702
        0   40101   10101   20101   30101   50101
 
      703     678     702     704     728    1703
        0   40101   10101   20101   30101   50101
 
      704     679     703     705     729    1704
        0   40101   10101   20101   30101   50101
 
      705     680     704     706     730    1705
        0   40101   10101   20101   30101   50101
 
      706     681     705     707     731    1706
        0   40101   10101   20101   30101   50101
 
      707     682     706     708     732    1707
        0   40101   10101   20101   30101   50101
 
      708     683     707     709     733    1708
        0   40101   10101   20101   30101   50101
 
      709     684     708     710     734    1709
        0   40101   10101   20101   30101   50101
 
      710     685     709     711     735    1710
        0   40101   10101   20101   30101   50101
 
      711     686     710     712     736    1711
        0   40101   10101   20101   30101   50101
 
      712     687     711     713     737    1712
        0   40101   10101   20101   30101   50101
 
      713     688     712     714     738    1713
        0   40101   10101   20101   30101   50101
 
      714     689     713     715     739    1714
        0   40101   10101   20101   30101   50101
 
      715     690     714     716     740    1715
        0   40101   10101   20101   30101   50101
 
      716     691     715     717     741    1716
        0   40101   10101   20101   30101   50101
 
      717     692     716     718     742    1717
        0   40101   10101   20101   30101   50101
 
      718     693     717     719     743    1718
        0   40101   10101   20101   30101   50101
 
      719     694     718     720     744    1719
        0   40101   10101   20101   30101   50101
 
      720     695     719     721     745    1720
        0   40101   10101   20101   30101   50101
 
      721     696     720     722     746    1721
        0   40101   10101   20101   30101   50101
 
      722     697     721     723     747    1722
        0   40101   10101   20101   30101   50101
 
      723     698     722     724     748    1723
        0   40101   10101   20101   30101   50101
 
      724     699     723     725     749    1724
        0   40101   10101   20101   30101   50101
 
      725     700     724     750    1725
        0   40101   10101   30101   50101
 
      726     701     727     751    1726
        0   40101   20101   30101   50101
 
      727     702     726     728     752    1727
        0   40101   10101   20101   30101   50101
 
      728     703     727     729     753    1728
        0   40101   10101   20101   30101   50101
 
      729     704     728     730     754    1729
        0   40101   10101   20101   30101   50101
 
      730     705     729     731     755    1730
        0   40101   10101   20101   30101   50101
 
      731     706     730     732     756    1731
        0   40101   10101   20101   30101   50101
 
      732     707     731     733     757    1732
        0   40101   10101   20101   30101   50101
 
      733     708     732     734     758    1733
        0   40101   10101   20101   30101   50101
 
      734     709     733     735     759    1734
        0   40101   10101   20101   30101   50101
 
      735     710     734     736     760    1735
        0   40101   10101   20101   30101   50101
 
      736     711     735     737     761    1736
        0   40101   10101   20101   30101   50101
 
      737     712     736     738     762    1737
        0   40101   10101   20101   30101   50101
 
      738     713     737     739     763    1738
        0   40101   10101   20101   30101   50101
 
      739     714     738     740     764    1739
        0   40101   10101   20101   30101   50101
 
      740     715     739     741     765    1740
        0   40101   10101   20101   30101   50101
 
      741     716     740     742     766    1741
        0   40101   10101   20101   30101   50101
 
      742     717     741     743     767    1742
        0   40101   10101   20101   30101   50101
 
      743     718     742     744     768    1743
        0   40101   10101   20101   30101   50101
 
      744     719     743     745     769    1744
        0   40101   10101   20101   30101   50101
 
      745     720     744     746     770    1745
        0   40101   10101   20101   30101   50101
 
      746     721     745     747     771    1746
        0   40101   10101   20101   30101   50101
 
      747     722     746     748     772    1747
        0   40101   10101   20101   30101   50101
 
      748     723     747     749     773    1748
        0   40101   10101   20101   30101   50101
 
      749     724     748     750     774    1749
        0   40101   10101   20101   30101   50101
 
      750     725     749     775    1750
        0   40101   10101   30101   50101
 
      751     726     752     776    1751
        0   40101   20101   30101   50101
 
      752     727     751     753     777    1752
        0   40101   10101   20101   30101   50101
 
      753     728     752     754     778    1753
        0   40101   10101   20101   30101   50101
 
      754     729     753     755     779    1754
        0   40101   10101   20101   30101   50101
 
      755     730     754     756     780    1755
        0   40101   10101   20101   30101   50101
 
      756     731     755     757     781    1756
        0   40101   10101   20101   30101   50101
 
      757     732     756     758     782    1757
        0   40101   10101   20101   30101   50101
 
      758     733     757     759     783    1758
        0   40101   10101   20101   30101   50101
 
      759     734     758     760     784    1759
        0   40101   10101   20101   30101   50101
 
      760     735     759     761     785    1760
        0   40101   10101   20101   30101   50101
 
      761     736     760     762     786    1761
        0   40101   10101   20101   30101   50101
 
      762     737     761     763     787    1762
        0   40101   10101   20101   30101   50101
 
      763     738     762     764     788    1763
        0   40101   10101   20101   30101   50101
 
      764     739     763     765     789    1764
        0   40101   10101   20101   30101   50101
 
      765     740     764     766     790    1765
        0   40101   10101   20101   30101   50101
 
      766     741     765     767     791    1766
        0   40101   10101   20101   30101   50101
 
      767     742     766     768     792    1767
        0   40101   10101   20101   30101   50101
 
      768     743     767     769     793    1768
        0   40101   10101   20101   30101   50101
 
      769     744     768     770     794    1769
        0   40101   10101   20101   30101   50101
 
      770     745     769     771     795    1770
        0   40101   10101   20101   30101   50101
 
      771     746     770     772     796    1771
        0   40101   10101   20101   30101   50101
 
      772     747     771     773     797    1772
        0   40101   10101   20101   30101   50101
 
      773     748     772     774     798    1773
        0   40101   10101   20101   30101   50101
 
      774     749     773     775     799    1774
        0   40101   10101   20101   30101   50101
 
      775     750     774     800    1775
        0   40101   10101   30101   50101
 
      776     751     777     801    1776
        0   40101   20101   30101   50101
 
      777     752     776     778     802    1777
        0   40101   10101   20101   30101   50101
 
      778     753     777     779     803    1778
        0   40101   10101   20101   30101   50101
 
      779     754     778     780     804    1779
        0   40101   10101   20101   30101   50101
 
      780     755     779     781     805    1780
        0   40101   10101   20101   30101   50101
 
      781     756     780     782     806    1781
        0   40101   10101   20101   30101   50101
 
      782     757     781     783     807    1782
        0   40101   10101   20101   30101   50101
 
      783     758     782     784     808    1783
        0   40101   10101   20101   30101   50101
 
      784     759     783     785     809    1784
        0   40101   10101   20101   30101   50101
 
      785     760     784     786     810    1785
        0   40101   10101   20101   30101   50101
 
      786     761     785     787     811    1786
        0   40101   10101   20101   30101   50101
 
      787     762     786     788     812    1787
        0   40101   10101   20101   30101   50101
 
      788     763     787     789     813    1788
        0   40101   10101   20101   30101   50101
 
      789     764     788     790     814    1789
        0   40101   10101   20101   30101   50101
 
      790     765     789     791     815    1790
        0   40101   10101   20101   30101   50101
 
      791     766     790     792     816    1791
        0   40101   10101   20101   30101   50101
 
      792     767     791     793     817    1792
        0   40101   10101   20101   30101   50101
 
      793     768     792     794     818    1793
        0   40101   10101   20101   30101   50101
 
      794     769     793     795     819    1794
        0   40101   10101   20101   30101   50101
 
      795     770     794     796     820    1795
        0   40101   10101   20101   30101   50101
 
      796     771     795     797     821    1796
        0   40101   10101   20101   30101   50101
 
      797     772     796     798     822    1797
        0   40101   10101   20101   30101   50101
 
      798     773     797     799     823    1798
        0   40101   10101   20101   30101   50101
 
      799     774     798     800     824    1799
        0   40101   10101   20101   30101   50101
 
      800     775     799     825    1800
        0   40101   10101   30101   50101
 
      801     776     802     826    1801
        0   40101   20101   30101   50101
 
      802     777     801     803     827    1802
        0   40101   10101   20101   30101   50101
 
      803     778     802     804     828    1803
        0   40101   10101   20101   30101   50101
 
      804     779     803     805     829    1804
        0   40101   10101   20101   30101   50101
 
      805     780     804     806     830    1805
        0   40101   10101   20101   30101   50101
 
      806     781     805     807     831    1806
        0   40101   10101   20101   30101   50101
 
      807     782     806     808     832    1807
        0   40101   10101   20101   30101   50101
 
      808     783     807     809     833    1808
        0   40101   10101   20101   30101   50101
 
      809     784     808     810     834    1809
        0   40101   10101   20101   30101   50101
 
      810     785     809     811     835    1810
        0   40101   10101   20101   30101   50101
 
      811     786     810     812     836    1811
        0   40101   10101   20101   30101   50101
 
      812     787     811     813     837    1812
        0   40101   10101   20101   30101   50101
 
      813     788     812     814     838    1813
        0   40101   10101   20101   30101   50101
 
      814     789     813     815     839    1814
        0   40101   10101   20101   30101   50101
 
      815     790     814     816     840    1815
        0   40101   10101   20101   30101   50101
 
      816     791     815     817     841    1816
        0   40101   10101   20101   30101   50101
 
      817     792     816     818     842    1817
        0   40101   10101   20101   30101   50101
 
      818     793     817     819     843    1818
        0   40101   10101   20101   30101   50101
 
      819     794     818     820     844    1819
        0   40101   10101   20101   30101   50101
 
      820     795     819     821     845    1820
        0   40101   10101   20101   30101   50101
 
      821     796     820     822     846    1821
        0   40101   10101   20101   30101   50101
 
      822     797     821     823     847    1822
        0   40101   10101   20101   30101   50101
 
      823     798     822     824     848    1823
        0   40101   10101   20101   30101   50101
 
      824     799     823     825     849    1824
        0   40101   10101   20101   30101   50101
 
      825     800     824     850    1825
        0   40101   10101   30101   50101
 
      826     801     827     851    1826
        0   40101   20101   30101   50101
 
      827     802     826     828     852    1827
        0   40101   10101   20101   30101   50101
 
      828     803     827     829     853    1828
        0   40101   10101   20101   30101   50101
 
      829     804     828     830     854    1829
        0   40101   10101   20101   30101   50101
 
      830     805     829     831     855    1830
        0   40101   10101   20101   30101   50101
 
      831     806     830     832     856    1831
        0   40101   10101   20101   30101   50101
 
      832     807     831     833     857    1832
        0   40101   10101   20101   30101   50101
 
      833     808     832     834     858    1833
        0   40101   10101   20101   30101   50101
 
      834     809     833     835     859    1834
        0   40101   10101   20101   30101   50101
 
      835     810     834     836     860    1835
        0   40101   10101   20101   30101   50101
 
      836     811     835     837     861    1836
        0   40101   10101   20101   30101   50101
 
[...]
        0   60101   40101   10101   20101   30101
 
     4813    3813    4788    4812    4814    4838
        0   60101   40101   10101   20101   30101
 
     4814    3814    4789    4813    4815    4839
        0   60101   40101   10101   20101   30101
 
     4815    3815    4790    4814    4816    4840
        0   60101   40101   10101   20101   30101
 
     4816    3816    4791    4815    4817    4841
        0   60101   40101   10101   20101   30101
 
     4817    3817    4792    4816    4818    4842
        0   60101   40101   10101   20101   30101
 
     4818    3818    4793    4817    4819    4843
        0   60101   40101   10101   20101   30101
 
     4819    3819    4794    4818    4820    4844
        0   60101   40101   10101   20101   30101
 
     4820    3820    4795    4819    4821    4845
        0   60101   40101   10101   20101   30101
 
     4821    3821    4796    4820    4822    4846
        0   60101   40101   10101   20101   30101
 
     4822    3822    4797    4821    4823    4847
        0   60101   40101   10101   20101   30101
 
     4823    3823    4798    4822    4824    4848
        0   60101   40101   10101   20101   30101
 
     4824    3824    4799    4823    4825    4849
        0   60101   40101   10101   20101   30101
 
     4825    3825    4800    4824    4850
        0   60101   40101   10101   30101
 
     4826    3826    4801    4827    4851
        0   60101   40101   20101   30101
 
     4827    3827    4802    4826    4828    4852
        0   60101   40101   10101   20101   30101
 
     4828    3828    4803    4827    4829    4853
        0   60101   40101   10101   20101   30101
 
     4829    3829    4804    4828    4830    4854
        0   60101   40101   10101   20101   30101
 
     4830    3830    4805    4829    4831    4855
        0   60101   40101   10101   20101   30101
 
     4831    3831    4806    4830    4832    4856
        0   60101   40101   10101   20101   30101
 
     4832    3832    4807    4831    4833    4857
        0   60101   40101   10101   20101   30101
 
     4833    3833    4808    4832    4834    4858
        0   60101   40101   10101   20101   30101
 
     4834    3834    4809    4833    4835    4859
        0   60101   40101   10101   20101   30101
 
     4835    3835    4810    4834    4836    4860
        0   60101   40101   10101   20101   30101
 
     4836    3836    4811    4835    4837    4861
        0   60101   40101   10101   20101   30101
 
     4837    3837    4812    4836    4838    4862
        0   60101   40101   10101   20101   30101
 
     4838    3838    4813    4837    4839    4863
        0   60101   40101   10101   20101   30101
 
     4839    3839    4814    4838    4840    4864
        0   60101   40101   10101   20101   30101
 
     4840    3840    4815    4839    4841    4865
        0   60101   40101   10101   20101   30101
 
     4841    3841    4816    4840    4842    4866
        0   60101   40101   10101   20101   30101
 
     4842    3842    4817    4841    4843    4867
        0   60101   40101   10101   20101   30101
 
     4843    3843    4818    4842    4844    4868
        0   60101   40101   10101   20101   30101
 
     4844    3844    4819    4843    4845    4869
        0   60101   40101   10101   20101   30101
 
     4845    3845    4820    4844    4846    4870
        0   60101   40101   10101   20101   30101
 
     4846    3846    4821    4845    4847    4871
        0   60101   40101   10101   20101   30101
 
     4847    3847    4822    4846    4848    4872
        0   60101   40101   10101   20101   30101
 
     4848    3848    4823    4847    4849    4873
        0   60101   40101   10101   20101   30101
 
     4849    3849    4824    4848    4850    4874
        0   60101   40101   10101   20101   30101
 
     4850    3850    4825    4849    4875
        0   60101   40101   10101   30101
 
     4851    3851    4826    4852    4876
        0   60101   40101   20101   30101
 
     4852    3852    4827    4851    4853    4877
        0   60101   40101   10101   20101   30101
 
     4853    3853    4828    4852    4854    4878
        0   60101   40101   10101   20101   30101
 
     4854    3854    4829    4853    4855    4879
        0   60101   40101   10101   20101   30101
 
     4855    3855    4830    4854    4856    4880
        0   60101   40101   10101   20101   30101
 
     4856    3856    4831    4855    4857    4881
        0   60101   40101   10101   20101   30101
 
     4857    3857    4832    4856    4858    4882
        0   60101   40101   10101   20101   30101
 
     4858    3858    4833    4857    4859    4883
        0   60101   40101   10101   20101   30101
 
     4859    3859    4834    4858    4860    4884
        0   60101   40101   10101   20101   30101
 
     4860    3860    4835    4859    4861    4885
        0   60101   40101   10101   20101   30101
 
     4861    3861    4836    4860    4862    4886
        0   60101   40101   10101   20101   30101
 
     4862    3862    4837    4861    4863    4887
        0   60101   40101   10101   20101   30101
 
     4863    3863    4838    4862    4864    4888
        0   60101   40101   10101   20101   30101
 
     4864    3864    4839    4863    4865    4889
        0   60101   40101   10101   20101   30101
 
     4865    3865    4840    4864    4866    4890
        0   60101   40101   10101   20101   30101
 
     4866    3866    4841    4865    4867    4891
        0   60101   40101   10101   20101   30101
 
     4867    3867    4842    4866    4868    4892
        0   60101   40101   10101   20101   30101
 
     4868    3868    4843    4867    4869    4893
        0   60101   40101   10101   20101   30101
 
     4869    3869    4844    4868    4870    4894
        0   60101   40101   10101   20101   30101
 
     4870    3870    4845    4869    4871    4895
        0   60101   40101   10101   20101   30101
 
     4871    3871    4846    4870    4872    4896
        0   60101   40101   10101   20101   30101
 
     4872    3872    4847    4871    4873    4897
        0   60101   40101   10101   20101   30101
 
     4873    3873    4848    4872    4874    4898
        0   60101   40101   10101   20101   30101
 
     4874    3874    4849    4873    4875    4899
        0   60101   40101   10101   20101   30101
 
     4875    3875    4850    4874    4900
        0   60101   40101   10101   30101
 
     4876    3876    4851    4877    4901
        0   60101   40101   20101   30101
 
     4877    3877    4852    4876    4878    4902
        0   60101   40101   10101   20101   30101
 
     4878    3878    4853    4877    4879    4903
        0   60101   40101   10101   20101   30101
 
     4879    3879    4854    4878    4880    4904
        0   60101   40101   10101   20101   30101
 
     4880    3880    4855    4879    4881    4905
        0   60101   40101   10101   20101   30101
 
     4881    3881    4856    4880    4882    4906
        0   60101   40101   10101   20101   30101
 
     4882    3882    4857    4881    4883    4907
        0   60101   40101   10101   20101   30101
 
     4883    3883    4858    4882    4884    4908
        0   60101   40101   10101   20101   30101
 
     4884    3884    4859    4883    4885    4909
        0   60101   40101   10101   20101   30101
 
     4885    3885    4860    4884    4886    4910
        0   60101   40101   10101   20101   30101
 
     4886    3886    4861    4885    4887    4911
        0   60101   40101   10101   20101   30101
 
     4887    3887    4862    4886    4888    4912
        0   60101   40101   10101   20101   30101
 
     4888    3888    4863    4887    4889    4913
        0   60101   40101   10101   20101   30101
 
     4889    3889    4864    4888    4890    4914
        0   60101   40101   10101   20101   30101
 
     4890    3890    4865    4889    4891    4915
        0   60101   40101   10101   20101   30101
 
     4891    3891    4866    4890    4892    4916
        0   60101   40101   10101   20101   30101
 
     4892    3892    4867    4891    4893    4917
        0   60101   40101   10101   20101   30101
 
     4893    3893    4868    4892    4894    4918
        0   60101   40101   10101   20101   30101
 
     4894    3894    4869    4893    4895    4919
        0   60101   40101   10101   20101   30101
 
     4895    3895    4870    4894    4896    4920
        0   60101   40101   10101   20101   30101
 
     4896    3896    4871    4895    4897    4921
        0   60101   40101   10101   20101   30101
 
     4897    3897    4872    4896    4898    4922
        0   60101   40101   10101   20101   30101
 
     4898    3898    4873    4897    4899    4923
        0   60101   40101   10101   20101   30101
 
     4899    3899    4874    4898    4900    4924
        0   60101   40101   10101   20101   30101
 
     4900    3900    4875    4899    4925
        0   60101   40101   10101   30101
 
     4901    3901    4876    4902    4926
        0   60101   40101   20101   30101
 
     4902    3902    4877    4901    4903    4927
        0   60101   40101   10101   20101   30101
 
     4903    3903    4878    4902    4904    4928
        0   60101   40101   10101   20101   30101
 
     4904    3904    4879    4903    4905    4929
        0   60101   40101   10101   20101   30101
 
     4905    3905    4880    4904    4906    4930
        0   60101   40101   10101   20101   30101
 
     4906    3906    4881    4905    4907    4931
        0   60101   40101   10101   20101   30101
 
     4907    3907    4882    4906    4908    4932
        0   60101   40101   10101   20101   30101
 
     4908    3908    4883    4907    4909    4933
        0   60101   40101   10101   20101   30101
 
     4909    3909    4884    4908    4910    4934
        0   60101   40101   10101   20101   30101
 
     4910    3910    4885    4909    4911    4935
        0   60101   40101   10101   20101   30101
 
     4911    3911    4886    4910    4912    4936
        0   60101   40101   10101   20101   30101
 
     4912    3912    4887    4911    4913    4937
        0   60101   40101   10101   20101   30101
 
     4913    3913    4888    4912    4914    4938
        0   60101   40101   10101   20101   30101
 
     4914    3914    4889    4913    4915    4939
        0   60101   40101   10101   20101   30101
 
     4915    3915    4890    4914    4916    4940
        0   60101   40101   10101   20101   30101
 
     4916    3916    4891    4915    4917    4941
        0   60101   40101   10101   20101   30101
 
     4917    3917    4892    4916    4918    4942
        0   60101   40101   10101   20101   30101
 
     4918    3918    4893    4917    4919    4943
        0   60101   40101   10101   20101   30101
 
     4919    3919    4894    4918    4920    4944
        0   60101   40101   10101   20101   30101
 
     4920    3920    4895    4919    4921    4945
        0   60101   40101   10101   20101   30101
 
     4921    3921    4896    4920    4922    4946
        0   60101   40101   10101   20101   30101
 
     4922    3922    4897    4921    4923    4947
        0   60101   40101   10101   20101   30101
 
     4923    3923    4898    4922    4924    4948
        0   60101   40101   10101   20101   30101
 
     4924    3924    4899    4923    4925    4949
        0   60101   40101   10101   20101   30101
 
     4925    3925    4900    4924    4950
        0   60101   40101   10101   30101
 
     4926    3926    4901    4927    4951
        0   60101   40101   20101   30101
 
     4927    3927    4902    4926    4928    4952
        0   60101   40101   10101   20101   30101
 
     4928    3928    4903    4927    4929    4953
        0   60101   40101   10101   20101   30101
 
     4929    3929    4904    4928    4930    4954
        0   60101   40101   10101   20101   30101
 
     4930    3930    4905    4929    4931    4955
        0   60101   40101   10101   20101   30101
 
     4931    3931    4906    4930    4932    4956
        0   60101   40101   10101   20101   30101
 
     4932    3932    4907    4931    4933    4957
        0   60101   40101   10101   20101   30101
 
     4933    3933    4908    4932    4934    4958
        0   60101   40101   10101   20101   30101
 
     4934    3934    4909    4933    4935    4959
        0   60101   40101   10101   20101   30101
 
     4935    3935    4910    4934    4936    4960
        0   60101   40101   10101   20101   30101
 
     4936    3936    4911    4935    4937    4961
        0   60101   40101   10101   20101   30101
 
     4937    3937    4912    4936    4938    4962
        0   60101   40101   10101   20101   30101
 
     4938    3938    4913    4937    4939    4963
        0   60101   40101   10101   20101   30101
 
     4939    3939    4914    4938    4940    4964
        0   60101   40101   10101   20101   30101
 
     4940    3940    4915    4939    4941    4965
        0   60101   40101   10101   20101   30101
 
     4941    3941    4916    4940    4942    4966
        0   60101   40101   10101   20101   30101
 
     4942    3942    4917    4941    4943    4967
        0   60101   40101   10101   20101   30101
 
     4943    3943    4918    4942    4944    4968
        0   60101   40101   10101   20101   30101
 
     4944    3944    4919    4943    4945    4969
        0   60101   40101   10101   20101   30101
 
     4945    3945    4920    4944    4946    4970
        0   60101   40101   10101   20101   30101
 
     4946    3946    4921    4945    4947    4971
        0   60101   40101   10101   20101   30101
 
     4947    3947    4922    4946    4948    4972
        0   60101   40101   10101   20101   30101
 
     4948    3948    4923    4947    4949    4973
        0   60101   40101   10101   20101   30101
 
     4949    3949    4924    4948    4950    4974
        0   60101   40101   10101   20101   30101
 
     4950    3950    4925    4949    4975
        0   60101   40101   10101   30101
 
     4951    3951    4926    4952    4976
        0   60101   40101   20101   30101
 
     4952    3952    4927    4951    4953    4977
        0   60101   40101   10101   20101   30101
 
     4953    3953    4928    4952    4954    4978
        0   60101   40101   10101   20101   30101
 
     4954    3954    4929    4953    4955    4979
        0   60101   40101   10101   20101   30101
 
     4955    3955    4930    4954    4956    4980
        0   60101   40101   10101   20101   30101
 
     4956    3956    4931    4955    4957    4981
        0   60101   40101   10101   20101   30101
 
     4957    3957    4932    4956    4958    4982
        0   60101   40101   10101   20101   30101
 
     4958    3958    4933    4957    4959    4983
        0   60101   40101   10101   20101   30101
 
     4959    3959    4934    4958    4960    4984
        0   60101   40101   10101   20101   30101
 
     4960    3960    4935    4959    4961    4985
        0   60101   40101   10101   20101   30101
 
     4961    3961    4936    4960    4962    4986
        0   60101   40101   10101   20101   30101
 
     4962    3962    4937    4961    4963    4987
        0   60101   40101   10101   20101   30101
 
     4963    3963    4938    4962    4964    4988
        0   60101   40101   10101   20101   30101
 
     4964    3964    4939    4963    4965    4989
        0   60101   40101   10101   20101   30101
 
     4965    3965    4940    4964    4966    4990
        0   60101   40101   10101   20101   30101
 
     4966    3966    4941    4965    4967    4991
        0   60101   40101   10101   20101   30101
 
     4967    3967    4942    4966    4968    4992
        0   60101   40101   10101   20101   30101
 
     4968    3968    4943    4967    4969    4993
        0   60101   40101   10101   20101   30101
 
     4969    3969    4944    4968    4970    4994
        0   60101   40101   10101   20101   30101
 
     4970    3970    4945    4969    4971    4995
        0   60101   40101   10101   20101   30101
 
     4971    3971    4946    4970    4972    4996
        0   60101   40101   10101   20101   30101
 
     4972    3972    4947    4971    4973    4997
        0   60101   40101   10101   20101   30101
 
     4973    3973    4948    4972    4974    4998
        0   60101   40101   10101   20101   30101
 
     4974    3974    4949    4973    4975    4999
        0   60101   40101   10101   20101   30101
 
     4975    3975    4950    4974    5000
        0   60101   40101   10101   30101
 
     4976    3976    4951    4977
        0   60101   40101   20101
 
     4977    3977    4952    4976    4978
        0   60101   40101   10101   20101
 
     4978    3978    4953    4977    4979
        0   60101   40101   10101   20101
 
     4979    3979    4954    4978    4980
        0   60101   40101   10101   20101
 
     4980    3980    4955    4979    4981
        0   60101   40101   10101   20101
 
     4981    3981    4956    4980    4982
        0   60101   40101   10101   20101
 
     4982    3982    4957    4981    4983
        0   60101   40101   10101   20101
 
     4983    3983    4958    4982    4984
        0   60101   40101   10101   20101
 
     4984    3984    4959    4983    4985
        0   60101   40101   10101   20101
 
     4985    3985    4960    4984    4986
        0   60101   40101   10101   20101
 
     4986    3986    4961    4985    4987
        0   60101   40101   10101   20101
 
     4987    3987    4962    4986    4988
        0   60101   40101   10101   20101
 
     4988    3988    4963    4987    4989
        0   60101   40101   10101   20101
 
     4989    3989    4964    4988    4990
        0   60101   40101   10101   20101
 
     4990    3990    4965    4989    4991
        0   60101   40101   10101   20101
 
     4991    3991    4966    4990    4992
        0   60101   40101   10101   20101
 
     4992    3992    4967    4991    4993
        0   60101   40101   10101   20101
 
     4993    3993    4968    4992    4994
        0   60101   40101   10101   20101
 
     4994    3994    4969    4993    4995
        0   60101   40101   10101   20101
 
     4995    3995    4970    4994    4996
        0   60101   40101   10101   20101
 
     4996    3996    4971    4995    4997
        0   60101   40101   10101   20101
 
     4997    3997    4972    4996    4998
        0   60101   40101   10101   20101
 
     4998    3998    4973    4997    4999
        0   60101   40101   10101   20101
 
     4999    3999    4974    4998    5000
        0   60101   40101   10101   20101
 
     5000    4000    4975    4999
        0   60101   40101   10101
 
Allocate budget reader component.
Open budget file in budget reader.
Allocate head reader component.
Open head file in head reader component.
Allocate MODPATH basic data component.
Read MODPATH basic data component.
Read the remainder of the MODPATH simulation data component.
Allocate particle tracking engine component.
Compute range of time steps. Prepare for time step loop                                                                             
Begin TIME_STEP_LOOP
Compute TSMAX                                                                                                                       
Begin TRACKING_INTERVAL_LOOP
Exit TRACKING_INTERVAL_LOOP
Exit TIME_STEP_LOOP
Write endpoint file.
Consolidating pathline segments.
Begin memory deallocation.
Memory deallocation complete.
