                                   MODFLOW 6
                U.S. GEOLOGICAL SURVEY MODULAR HYDROLOGIC MODEL
                          GROUNDWATER FLOW MODEL (GWF)
                        VERSION 6.4.1 Release 12/09/2022

   MODFLOW 6 compiled Dec 09 2022 18:18:37 with Intel(R) Fortran Intel(R) 64
   Compiler Classic for applications running on Intel(R) 64, Version 2021.7.0
                             Build 20220726_000000

This software has been approved for release by the U.S. Geological 
Survey (USGS). Although the software has been subjected to rigorous 
review, the USGS reserves the right to update the software as needed 
pursuant to further analysis and review. No warranty, expressed or 
implied, is made by the USGS or the U.S. Government as to the 
functionality of the software and related material nor shall the 
fact of release constitute any such warranty. Furthermore, the 
software is released on condition that neither the USGS nor the U.S. 
Government shall be held liable for any damages resulting from its 
authorized or unauthorized use. Also refer to the USGS Water 
Resources Software User Rights Notice for complete use, copyright, 
and distribution information.


As a work of the United States Government, this USGS product is 
in the public domain within the United States. You can copy, 
modify, distribute, and perform the work, even for commercial 
purposes, all without asking permission. Additionally, USGS 
waives copyright and related rights in the work worldwide 
through CC0 1.0 Universal Public Domain Dedication 
(https://creativecommons.org/publicdomain/zero/1.0/).

The following GNU Lesser General Public License (LGPL) libraries
are used in this USGS product:

    SPARSKIT version 2.0
      ilut, luson, and qsplit 
      (https://www-users.cse.umn.edu/~saad/software/SPARSKIT/)

    RCM - Reverse Cuthill McKee Ordering
      (https://people.math.sc.edu/Burkardt/f_src/rcm/rcm.html)

    BLAS - Basic Linear Algebra Subprograms Level 1
      (https://people.math.sc.edu/Burkardt/f_src/blas1_d/blas1_d.html)

    SPARSEKIT - Sparse Matrix Utility Package
      amux, dperm, dvperm, rperm, and cperm
      (https://people.sc.fsu.edu/~jburkardt/f77_src/sparsekit/sparsekit.html)

The following BSD-3 License libraries are used in this USGS product:

    Modern Fortran DAG Library
      Copyright (c) 2018, Jacob Williams
      All rights reserved.
      (https://github.com/jacobwilliams/daglib)

MODFLOW 6 compiler options: /Isrc\libmf6core.a.p /Isrc /I..\src
/Isrc\libmf6_external.a.p /MTd /nologo /warn:general /warn:truncated_source
/stand:f08 /Zi /traceback /O2 /fpe:0 /heap-arrays:0 /traceback /fpp
/Qdiag-disable:7416 /Qdiag-disable:7025 /Qdiag-disable:5268
/Fdsrc\libmf6core.a.p\Utilities_compilerversion.F90.pdb
/module:src\libmf6core.a.p
/Fosrc/libmf6core.a.p/Utilities_compilerversion.F90.obj /c

System command used to initiate simulation:
C:\Users\jlarsen\Desktop\modflow_memphis\exercises\3_mv\modpath\bin\mf6.exe

MODFLOW was compiled using uniform precision.

Real Variables
  KIND: 8
  TINY (smallest non-zero value):    2.225074-308
  HUGE (largest value):    1.797693+308
  PRECISION: 15
  SIZE IN BITS: 64

Integer Variables
  KIND: 4
  HUGE (largest value): 2147483647
  SIZE IN BITS: 32

Long Integer Variables
  KIND: 8
  HUGE (largest value): 9223372036854775807
  SIZE IN BITS: 64

Logical Variables
  KIND: 4
  SIZE IN BITS: 32
 

 OPENED mv.dis
 FILE TYPE:DIS6                   UNIT 1005   STATUS:OLD                 
 FORMAT:FORMATTED              ACCESS:SEQUENTIAL          
 ACTION:READ                


 OPENED mv.ic
 FILE TYPE:IC6                    UNIT 1006   STATUS:OLD                 
 FORMAT:FORMATTED              ACCESS:SEQUENTIAL          
 ACTION:READ                


 OPENED mv.npf
 FILE TYPE:NPF6                   UNIT 1007   STATUS:OLD                 
 FORMAT:FORMATTED              ACCESS:SEQUENTIAL          
 ACTION:READ                


 OPENED mv.oc
 FILE TYPE:OC6                    UNIT 1008   STATUS:OLD                 
 FORMAT:FORMATTED              ACCESS:SEQUENTIAL          
 ACTION:READ                


 OPENED mv.ghb
 FILE TYPE:GHB6                   UNIT 1009   STATUS:OLD                 
 FORMAT:FORMATTED              ACCESS:SEQUENTIAL          
 ACTION:READ                


 OPENED mv.rch
 FILE TYPE:RCH6                   UNIT 1010   STATUS:OLD                 
 FORMAT:FORMATTED              ACCESS:SEQUENTIAL          
 ACTION:READ                


 OPENED mv.riv
 FILE TYPE:RIV6                   UNIT 1011   STATUS:OLD                 
 FORMAT:FORMATTED              ACCESS:SEQUENTIAL          
 ACTION:READ                


 OPENED mv.wel
 FILE TYPE:WEL6                   UNIT 1012   STATUS:OLD                 
 FORMAT:FORMATTED              ACCESS:SEQUENTIAL          
 ACTION:READ                

 NAMEFILE OPTIONS:
    FLOWS WILL BE SAVED TO BUDGET FILE SPECIFIED IN OUTPUT CONTROL

 DIS -- STRUCTURED GRID DISCRETIZATION PACKAGE, VERSION 2 : 3/27/2014 - INPUT READ FROM UNIT 1005

 Loading input for MV/DIS
   XORIGIN = .000000000000000
   YORIGIN = .000000000000000
   ANGROT = .000000000000000
   NLAY = 5
   NROW = 40
   NCOL = 25
   DELR = 500.0000000000000
   DELC = 500.0000000000000
   TOP = 100.0000000000000
   BOTM = variable 3D double precision array ranging from -250.0000000000000 to -5.000000000000000
   IDOMAIN = variable 3D integer array ranging from 0 to 1
 Loading input complete...


 NPF -- NODE PROPERTY FLOW PACKAGE, VERSION 1, 3/30/2015 INPUT READ FROM UNIT 1007

 Loading input for MV/NPF
   IPAKCB = 1
   ISAVSPDIS = 1
   ICELLTYPE = variable 1D integer array ranging from 0 to 1
   K = variable 1D double precision array ranging from .3000000000000000E-02 to 400.0000000000000
   K33 = variable 1D double precision array ranging from .3000000000000000E-02 to 200.0000000000000
 Loading input complete...

 Setting Discretization Options
    Model length unit [0=UND, 1=FEET, 2=METERS, 3=CENTIMETERS] set as 1
    XORIGIN = .000000000000000
    YORIGIN = .000000000000000
    ANGROT = .000000000000000
 End Setting Discretization Options

 Setting Discretization Dimensions
    NLAY = 5
    NROW = 40
    NCOL = 25
 End Setting Discretization Dimensions

 Setting Discretization Griddata
    DELR set from input file
    DELC set from input file
    TOP set from input file
    BOTM set from input file
    IDOMAIN set from input file
 End Setting Discretization Griddata


 The specified IDOMAIN results in a reduced number of cells.
 Number of user nodes: 5000
 Number of nodes in solution: 4935


 Setting NPF Options
    Cell-by-cell flow information will be saved to binary file whenever ICBCFL is not zero.
    Specific discharge will be calculated at cell centers and written to DATA-SPDIS in budget file when requested.
 End Setting NPF Options

 Setting NPF Griddata
    ICELLTYPE set from input file
    K set from input file
    K33 set from input file
    K22 not provided.  Setting K22 = K.
 End Setting NPF Griddata


 WEL   -- WEL PACKAGE, VERSION 8, 2/22/2014 INPUT READ FROM UNIT 1012

 PROCESSING WEL OPTIONS
    LISTS OF WEL CELLS WILL BE PRINTED.
    WEL FLOWS WILL BE PRINTED TO LISTING FILE.
    FLOWS WILL BE SAVED TO BUDGET FILE SPECIFIED IN OUTPUT CONTROL
 END OF WEL OPTIONS

 PROCESSING WEL DIMENSIONS
    MAXBOUND =       2
 END OF WEL DIMENSIONS

 RIV   -- RIV PACKAGE, VERSION 8, 2/22/2014 INPUT READ FROM UNIT 1011

 PROCESSING RIV OPTIONS
    LISTS OF RIV CELLS WILL BE PRINTED.
    RIV FLOWS WILL BE PRINTED TO LISTING FILE.
    FLOWS WILL BE SAVED TO BUDGET FILE SPECIFIED IN OUTPUT CONTROL
    RIV BOUNDARIES HAVE NAMES IN LAST COLUMN.

 OPENED mv.riv.obs
 FILE TYPE:OBS   UNIT 1026   STATUS:OLD                 
 FORMAT:FORMATTED              ACCESS:SEQUENTIAL          
 ACTION:READ                

 END OF RIV OPTIONS

 PROCESSING RIV DIMENSIONS
    MAXBOUND =      18
 END OF RIV DIMENSIONS

 GHB   -- GHB PACKAGE, VERSION 8, 2/22/2014 INPUT READ FROM UNIT 1009

 PROCESSING GHB OPTIONS
    LISTS OF GHB CELLS WILL BE PRINTED.
    GHB FLOWS WILL BE PRINTED TO LISTING FILE.
    FLOWS WILL BE SAVED TO BUDGET FILE SPECIFIED IN OUTPUT CONTROL
 END OF GHB OPTIONS

 PROCESSING GHB DIMENSIONS
    MAXBOUND =     105
 END OF GHB DIMENSIONS

 RCH   -- RCH PACKAGE, VERSION 8, 2/22/2014 INPUT READ FROM UNIT 1010

 PROCESSING RCH OPTIONS
    FLOWS WILL BE SAVED TO BUDGET FILE SPECIFIED IN OUTPUT CONTROL
    RECHARGE INPUT WILL BE READ AS ARRAY(S).
 END OF RCHA OPTIONS

 IC -- INITIAL CONDITIONS PACKAGE, VERSION 8, 3/28/2015 INPUT READ FROM UNIT 1006
 PROCESSING IC OPTIONS
 END OF IC OPTIONS
 PROCESSING GRIDDATA

     INITIAL HEAD =   11.00000     FOR LAYER 1

     INITIAL HEAD =   11.00000     FOR LAYER 2

     INITIAL HEAD =   11.00000     FOR LAYER 3

     INITIAL HEAD =   11.00000     FOR LAYER 4

     INITIAL HEAD =   11.00000     FOR LAYER 5
 END PROCESSING GRIDDATA
    BINARY GRID INFORMATION WILL BE WRITTEN TO:
      UNIT NUMBER: 1027
      FILE NAME: C:\Users\jlarsen\Desktop\modflow_memphis\exercises\3_mv\modpath\mv_a\mv.dis.grb

 OPENED C:\Users\jlarsen\Desktop\modflow_memphis\exercises\3_mv\modpath\mv_a\mv.dis.grb
 FILE TYPE:DATA(BINARY)   UNIT 1027   STATUS:REPLACE             
 FORMAT:UNFORMATTED            ACCESS:STREAM              
 ACTION:READWRITE           

      THE LAST TIME STEP WILL BE PRINTED
      THE LAST TIME STEP WILL BE PRINTED

 PROCESSING OC OPTIONS

    HEAD INFORMATION WILL BE WRITTEN TO:
      UNIT NUMBER: 1028
      FILE NAME: mv.hed

 OPENED mv.hed
 FILE TYPE:DATA(BINARY)   UNIT 1028   STATUS:REPLACE             
 FORMAT:UNFORMATTED            ACCESS:STREAM              
 ACTION:READWRITE           

    BUDGET INFORMATION WILL BE WRITTEN TO:
      UNIT NUMBER: 1029
      FILE NAME: mv.bud

 OPENED mv.bud
 FILE TYPE:DATA(BINARY)   UNIT 1029   STATUS:REPLACE             
 FORMAT:UNFORMATTED            ACCESS:STREAM              
 ACTION:READWRITE           

 END OF OC OPTIONS

The observation utility is active for "RIV-1"

Processing observation options:

Text output number of digits of precision set to: 15
The PRINT_INPUT option has been specified.


 OBSERVATIONS READ FROM FILE "mv.riv.obs"
 ----------------------------------------------------------------------------------------------------------------------------------------------------------------------------------------------------------------------------
 NAME                                     TYPE                                       TIME         LOCATION DATA                              OUTPUT FILENAME                                                                 
 ----------------------------------------------------------------------------------------------------------------------------------------------------------------------------------------------------------------------------
 RIV_1                                    CONTINUOUS  RIV                            ALL TIMES    "  POLFORD"                                riv.obs.csv                                                                     
 ----------------------------------------------------------------------------------------------------------------------------------------------------------------------------------------------------------------------------



start timestep kper="1" kstp="1" mode="normal"


 BEGIN READING OUTPUT CONTROL FOR STRESS PERIOD 1
      ALL TIME STEPS WILL BE SAVED
      ALL TIME STEPS WILL BE PRINTED
      ALL TIME STEPS WILL BE SAVED
      ALL TIME STEPS WILL BE PRINTED

 END READING OUTPUT CONTROL FOR STRESS PERIOD 1
 ---------------------------------------------------
  WEL NO.    LAYER    ROW     COL     STRESS RATE   
 ---------------------------------------------------
     1         5       6      15    -67000.0000     
     2         5      35      16    -268000.000     
 ---------------------------------------------------


 ------------------------------------------------------------------------------------------------------------------------------
  RIV NO.    LAYER    ROW     COL        STAGE         CONDUCTANCE       BOTTOM EL.    BOUNDNAME                               
 ------------------------------------------------------------------------------------------------------------------------------
     1         1      23       9     1.75000000       100000.000      -2.00000000      POLFORD                                 
     2         1      24       9     1.65000000       100000.000      -2.00000000      POLFORD                                 
     3         1      25       9     1.55000000       100000.000      -2.00000000      SOBOUND                                 
     4         1      26       9     1.45000000       100000.000      -2.00000000      SOBOUND                                 
     5         1      27       9     1.35000000       100000.000      -2.00000000      SOBOUND                                 
     6         1      28       9     1.25000000       100000.000      -2.00000000      SOBOUND                                 
     7         1      29       9     1.15000000       100000.000      -2.00000000      SOBOUND                                 
     8         1      30       9     1.05000000       100000.000      -2.00000000      SOBOUND                                 
     9         1      31       9     0.950000000      100000.000      -2.00000000      SOBOUND                                 
     10        1      32       9     0.850000000      100000.000      -2.00000000      SOBOUND                                 
     11        1      33       9     0.750000000      100000.000      -2.00000000      SOBOUND                                 
     12        1      34       9     0.650000000      100000.000      -2.00000000      SOBOUND                                 
     13        1      35       9     0.550000000      100000.000      -2.00000000      SOBOUND                                 
     14        1      36       9     0.450000000      100000.000      -2.00000000      SOBOUND                                 
     15        1      37       9     0.350000000      100000.000      -2.00000000      SOBOUND                                 
     16        1      38       9     0.250000000      100000.000      -2.00000000      SOBOUND                                 
     17        1      39       9     0.150000000      100000.000      -2.00000000      SOBOUND                                 
     18        1      40       9     5.000000000E-02  100000.000      -2.00000000      SOBOUND                                 
 ------------------------------------------------------------------------------------------------------------------------------


 --------------------------------------------------------------------
  GHB NO.    LAYER    ROW     COL        STAGE         CONDUCTANCE   
 --------------------------------------------------------------------
     1         2       4       4     8.96000000       555000.000     
     2         2       4       5     8.96000000       555000.000     
     3         2       4       6     8.96000000       555000.000     
     4         2       4       7     8.96000000       555000.000     
     5         2       5       3     8.96000000       555000.000     
     6         2       5       4     8.96000000       555000.000     
     7         2       5       5     8.96000000       555000.000     
     8         2       5       6     8.96000000       555000.000     
     9         2       5       7     8.96000000       555000.000     
     10        2       6       3     8.96000000       555000.000     
     11        2       6       4     8.96000000       555000.000     
     12        2       6       5     8.96000000       555000.000     
     13        2       6       6     8.96000000       555000.000     
     14        2       6       7     8.96000000       555000.000     
     15        2       7       3     8.96000000       555000.000     
     16        2       7       4     8.96000000       555000.000     
     17        2       7       5     8.96000000       555000.000     
     18        2       7       6     8.96000000       555000.000     
     19        2       7       7     8.96000000       555000.000     
     20        2       8       3     8.96000000       555000.000     
     21        2       8       4     8.96000000       555000.000     
     22        2       8       5     8.96000000       555000.000     
     23        2       8       6     8.96000000       555000.000     
     24        2       8       7     8.96000000       555000.000     
     25        2       9       3     8.96000000       555000.000     
     26        2       9       4     8.96000000       555000.000     
     27        2       9       5     8.96000000       555000.000     
     28        2       9       6     8.96000000       555000.000     
     29        2       9       7     8.96000000       555000.000     
     30        2      10       3     8.96000000       555000.000     
     31        2      10       4     8.96000000       555000.000     
     32        2      10       5     8.96000000       555000.000     
     33        2      10       6     8.96000000       555000.000     
     34        2      10       7     8.96000000       555000.000     
     35        2      10       8     8.96000000       555000.000     
     36        2      11       4     8.96000000       555000.000     
     37        2      11       5     8.96000000       555000.000     
     38        2      11       6     8.96000000       555000.000     
     39        2      11       7     8.96000000       555000.000     
     40        2      11       8     8.96000000       555000.000     
     41        2      12       4     8.96000000       555000.000     
     42        2      12       5     8.96000000       555000.000     
     43        2      12       6     8.96000000       555000.000     
     44        2      12       7     8.96000000       555000.000     
     45        2      12       8     8.96000000       555000.000     
     46        2      12       9     8.96000000       555000.000     
     47        2      13       5     8.96000000       555000.000     
     48        2      13       6     8.96000000       555000.000     
     49        2      13       7     8.96000000       555000.000     
     50        2      13       8     8.96000000       555000.000     
     51        2      13       9     8.96000000       555000.000     
     52        2      14       5     8.96000000       555000.000     
     53        2      14       6     8.96000000       555000.000     
     54        2      14       7     8.96000000       555000.000     
     55        2      14       8     8.96000000       555000.000     
     56        2      14       9     8.96000000       555000.000     
     57        2      15       5     8.96000000       555000.000     
     58        2      15       6     8.96000000       555000.000     
     59        2      15       7     8.96000000       555000.000     
     60        2      15       8     8.96000000       555000.000     
     61        2      15       9     8.96000000       555000.000     
     62        2      16       6     8.96000000       555000.000     
     63        2      16       7     8.96000000       555000.000     
     64        2      16       8     8.96000000       555000.000     
     65        2      16       9     8.96000000       555000.000     
     66        1       3       4     8.96000000       6400.00000     
     67        1       3       5     8.96000000       6400.00000     
     68        1       3       6     8.96000000       6400.00000     
     69        1       3       7     8.96000000       6400.00000     
     70        1       4       8     8.96000000       6400.00000     
     71        1       5       8     8.96000000       6400.00000     
     72        1       6       8     8.96000000       6400.00000     
     73        1       7       8     8.96000000       6400.00000     
     74        1       8       8     8.96000000       6400.00000     
     75        1       9       8     8.96000000       6400.00000     
     76        1       9       8     8.96000000       6400.00000     
     77        1      10       9     8.96000000       6400.00000     
     78        1      11       9     8.96000000       6400.00000     
     79        1      11       9     8.96000000       6400.00000     
     80        1      12      10     8.96000000       6400.00000     
     81        1      13      10     8.96000000       6400.00000     
     82        1      14      10     8.96000000       6400.00000     
     83        1      15      10     8.96000000       6400.00000     
     84        1      16      10     8.96000000       6400.00000     
     85        1      17       9     8.96000000       6400.00000     
     86        1      17       8     8.96000000       6400.00000     
     87        1      17       7     8.96000000       6400.00000     
     88        1      17       6     8.96000000       6400.00000     
     89        1      16       5     8.96000000       6400.00000     
     90        1      16       5     8.96000000       6400.00000     
     91        1      15       4     8.96000000       6400.00000     
     92        1      14       4     8.96000000       6400.00000     
     93        1      13       4     8.96000000       6400.00000     
     94        1      13       4     8.96000000       6400.00000     
     95        1      12       3     8.96000000       6400.00000     
     96        1      11       3     8.96000000       6400.00000     
     97        1      11       3     8.96000000       6400.00000     
     98        1      10       2     8.96000000       6400.00000     
     99        1       9       2     8.96000000       6400.00000     
    100        1       8       2     8.96000000       6400.00000     
    101        1       7       2     8.96000000       6400.00000     
    102        1       6       2     8.96000000       6400.00000     
    103        1       5       2     8.96000000       6400.00000     
    104        1       4       3     8.96000000       6400.00000     
    105        1       4       3     8.96000000       6400.00000     
 --------------------------------------------------------------------



                 RECHARGE =  0.3641000E-02
 UBDSV1 SAVING     FLOW-JA-FACE ON UNIT   1029 AT TIME STEP      1, STRESS PERIOD      1
 UBDSV06 SAVING       DATA-SPDIS IN MODEL MV               PACKAGE NPF             CONNECTED TO MODEL MV               PACKAGE NPF              ON UNIT   1029 AT TIME STEP      1, STRESS PERIOD      1
 UBDSV06 SAVING              WEL IN MODEL MV               PACKAGE MV              CONNECTED TO MODEL MV               PACKAGE WEL-1            ON UNIT   1029 AT TIME STEP      1, STRESS PERIOD      1
 UBDSV06 SAVING              RIV IN MODEL MV               PACKAGE MV              CONNECTED TO MODEL MV               PACKAGE RIV-1            ON UNIT   1029 AT TIME STEP      1, STRESS PERIOD      1
 UBDSV06 SAVING              GHB IN MODEL MV               PACKAGE MV              CONNECTED TO MODEL MV               PACKAGE GHB-1            ON UNIT   1029 AT TIME STEP      1, STRESS PERIOD      1
 UBDSV06 SAVING             RCHA IN MODEL MV               PACKAGE MV              CONNECTED TO MODEL MV               PACKAGE RCH-1            ON UNIT   1029 AT TIME STEP      1, STRESS PERIOD      1

 WEL PACKAGE (WEL-1) FLOW RATES   PERIOD      1   STEP        1
 -----------------------------------------------
   NUMBER   CELLID                    RATE      
 -----------------------------------------------
     1      (5,6,15)             -67000.000     
     2      (5,35,16)            -268000.00     
 -----------------------------------------------




 RIV PACKAGE (RIV-1) FLOW RATES   PERIOD      1   STEP        1
 ----------------------------------------------------------------------------------------
   NUMBER   CELLID                    RATE       NAME                                    
 ----------------------------------------------------------------------------------------
     1      (1,23,9)             -74634.146      POLFORD                                 
     2      (1,24,9)             -56575.733      POLFORD                                 
     3      (1,25,9)             -46883.635      SOBOUND                                 
     4      (1,26,9)             -40586.435      SOBOUND                                 
     5      (1,27,9)             -35957.781      SOBOUND                                 
     6      (1,28,9)             -32289.729      SOBOUND                                 
     7      (1,29,9)             -29232.850      SOBOUND                                 
     8      (1,30,9)             -26596.727      SOBOUND                                 
     9      (1,31,9)             -24283.658      SOBOUND                                 
     10     (1,32,9)             -22296.165      SOBOUND                                 
     11     (1,33,9)             -20675.477      SOBOUND                                 
     12     (1,34,9)             -19492.686      SOBOUND                                 
     13     (1,35,9)             -18824.290      SOBOUND                                 
     14     (1,36,9)             -18711.809      SOBOUND                                 
     15     (1,37,9)             -19140.840      SOBOUND                                 
     16     (1,38,9)             -20083.307      SOBOUND                                 
     17     (1,39,9)             -21588.611      SOBOUND                                 
     18     (1,40,9)             -24045.397      SOBOUND                                 
 ----------------------------------------------------------------------------------------




 GHB PACKAGE (GHB-1) FLOW RATES   PERIOD      1   STEP        1
 -----------------------------------------------
   NUMBER   CELLID                    RATE      
 -----------------------------------------------
     1      (2,4,4)              -2268.8424     
     2      (2,4,5)              -1513.8875     
     3      (2,4,6)              -2047.1311     
     4      (2,4,7)              -5713.4687     
     5      (2,5,3)              -1937.2289     
     6      (2,5,4)               104.82845     
     7      (2,5,5)               124.27165     
     8      (2,5,6)               27.875832     
     9      (2,5,7)              -2757.9751     
     10     (2,6,3)              -704.35409     
     11     (2,6,4)               182.39872     
     12     (2,6,5)               195.68075     
     13     (2,6,6)               122.79957     
     14     (2,6,7)              -2309.2917     
     15     (2,7,3)              -500.10607     
     16     (2,7,4)               212.13281     
     17     (2,7,5)               220.75464     
     18     (2,7,6)               159.67179     
     19     (2,7,7)              -1977.6348     
     20     (2,8,3)              -330.86558     
     21     (2,8,4)               246.68488     
     22     (2,8,5)               252.55075     
     23     (2,8,6)               201.58595     
     24     (2,8,7)              -1585.5724     
     25     (2,9,3)              -116.59598     
     26     (2,9,4)               288.86503     
     27     (2,9,5)               292.83295     
     28     (2,9,6)               255.75329     
     29     (2,9,7)              -965.78386     
     30     (2,10,3)              393.99428     
     31     (2,10,4)              345.43645     
     32     (2,10,5)              338.23703     
     33     (2,10,6)              327.78048     
     34     (2,10,7)              209.12723     
     35     (2,10,8)             -2746.8370     
     36     (2,11,4)              602.64089     
     37     (2,11,5)              397.91286     
     38     (2,11,6)              383.61313     
     39     (2,11,7)              344.75074     
     40     (2,11,8)             -838.32856     
     41     (2,12,4)              1884.7523     
     42     (2,12,5)              496.43809     
     43     (2,12,6)              454.63482     
     44     (2,12,7)              435.63726     
     45     (2,12,8)              330.62404     
     46     (2,12,9)             -1850.0504     
     47     (2,13,5)              1246.6741     
     48     (2,13,6)              553.67597     
     49     (2,13,7)              524.32813     
     50     (2,13,8)              501.38408     
     51     (2,13,9)              0.90665700    
     52     (2,14,5)              2218.3482     
     53     (2,14,6)              678.97955     
     54     (2,14,7)              644.11218     
     55     (2,14,8)              633.81184     
     56     (2,14,9)              764.05585     
     57     (2,15,5)              6258.1073     
     58     (2,15,6)              987.29613     
     59     (2,15,7)              855.91877     
     60     (2,15,8)              854.46254     
     61     (2,15,9)              1781.3498     
     62     (2,16,6)              9031.2807     
     63     (2,16,7)              5941.8439     
     64     (2,16,8)              5634.3874     
     65     (2,16,9)              8143.4674     
     66     (1,3,4)              -1105.4783     
     67     (1,3,5)              -939.23308     
     68     (1,3,6)              -988.02003     
     69     (1,3,7)              -1220.0016     
     70     (1,4,8)              -1314.9562     
     71     (1,5,8)              -1092.6099     
     72     (1,6,8)              -959.54593     
     73     (1,7,8)              -845.99236     
     74     (1,8,8)              -711.12483     
     75     (1,9,8)              -492.39855     
     76     (1,9,8)              -492.39855     
     77     (1,10,9)             -748.89906     
     78     (1,11,9)             -461.16799     
     79     (1,11,9)             -461.16799     
     80     (1,12,10)            -562.94063     
     81     (1,13,10)            -266.16096     
     82     (1,14,10)             85.380487     
     83     (1,15,10)             662.04320     
     84     (1,16,10)             1777.4288     
     85     (1,17,9)              3510.0054     
     86     (1,17,8)              3351.5689     
     87     (1,17,7)              3569.8614     
     88     (1,17,6)              4275.8108     
     89     (1,16,5)              2010.5794     
     90     (1,16,5)              2010.5794     
     91     (1,15,4)              1976.5884     
     92     (1,14,4)              1071.7276     
     93     (1,13,4)              469.57622     
     94     (1,13,4)              469.57622     
     95     (1,12,3)              529.91909     
     96     (1,11,3)              110.22199     
     97     (1,11,3)              110.22199     
     98     (1,10,2)             -118.04268     
     99     (1,9,2)              -326.66509     
    100     (1,8,2)              -450.54317     
    101     (1,7,2)              -548.20703     
    102     (1,6,2)              -664.63343     
    103     (1,5,2)              -875.35555     
    104     (1,4,3)              -727.61670     
    105     (1,4,3)              -727.61670     
 -----------------------------------------------



1
  HEAD IN LAYER   1 AT END OF TIME STEP   1 IN STRESS PERIOD    1
  ---------------------------------------------------------------------------

           1       2       3       4       5       6       7       8       9      10      11      12      13      14      15      16      17      18      19      20      21      22      23      24      25
 ...........................................................................................................................................................................................................
   1     9.37    9.36    9.34    9.31    9.30    9.31    9.34    9.39    9.46    9.53    9.59    9.66    9.72    9.77    9.83    9.87    9.91    9.94    9.95    9.91    9.78    9.83    9.87    9.90    9.92
   2     9.35    9.33    9.29    9.26    9.24    9.24    9.28    9.35    9.42    9.50    9.57    9.64    9.70    9.76    9.81    9.86    9.91    9.94    9.95    9.95    9.92    9.93    9.95    9.95    9.91
   3     9.30    9.26    9.20    9.13    9.11    9.11    9.15    9.26    9.36    9.45    9.54    9.61    9.68    9.74    9.79    9.84    9.89    9.93    9.95    9.97    9.97    9.98    9.98    9.95    9.89
   4     9.23    9.18    9.07 ******* ******* ******* *******    9.17    9.30    9.40    9.49    9.57    9.64    9.70    9.76    9.81    9.86    9.90    9.94    9.96    9.97    9.97    9.97    9.93    9.86
   5     9.17    9.10 ******* ******* ******* ******* *******    9.13    9.26    9.36    9.44    9.52    9.59    9.66    9.71    9.77    9.82    9.87    9.91    9.93    9.95    9.94    9.92    9.89    9.81
   6     9.13    9.06 ******* ******* ******* ******* *******    9.11    9.23    9.33    9.41    9.48    9.55    9.61    9.66    9.72    9.78    9.83    9.87    9.89    9.90    9.89    9.86    9.81    9.77
   7     9.10    9.05 ******* ******* ******* ******* *******    9.09    9.20    9.30    9.37    9.44    9.50    9.57    9.62    9.68    9.73    9.78    9.82    9.84    9.84    9.82    9.78    9.70    9.71
   8     9.07    9.03 ******* ******* ******* ******* *******    9.07    9.17    9.26    9.33    9.39    9.46    9.52    9.57    9.63    9.68    9.72    9.75    9.77    9.77    9.74    9.69    9.64    9.65
   9     9.04    9.01 ******* ******* ******* ******* *******    9.04    9.13    9.21    9.29    9.35    9.41    9.47    9.52    9.57    9.61    9.65    9.68    9.69    9.68    9.64    9.55    9.57    9.59
  10     8.99    8.98 ******* ******* ******* ******* ******* *******    9.08    9.16    9.23    9.30    9.35    9.40    9.45    9.49    9.53    9.57    9.59    9.61    9.59    9.55    9.47    9.50    9.52
  11     8.89    8.91    8.94 ******* ******* ******* ******* *******    9.03    9.11    9.18    9.23    9.27    9.32    9.36    9.40    9.44    9.47    9.50    9.51    9.50    9.46    9.38    9.41    9.43
  12     8.71    8.79    8.88 ******* ******* ******* ******* ******* *******    9.05    9.10    9.14    9.18    9.21    9.25    9.29    9.32    9.35    9.38    9.39    9.39    9.36    9.29    9.31    9.33
  13     8.37    8.59    8.74    8.89 ******* ******* ******* ******* *******    9.00    9.02    9.04    9.06    9.09    9.12    9.15    9.18    9.21    9.24    9.26    9.26    9.24    9.19    9.20    9.22
  14     8.20    8.38    8.58    8.79 ******* ******* ******* ******* *******    8.95    8.93    8.91    8.92    8.93    8.96    8.98    9.02    9.05    9.08    9.10    9.11    9.09    9.05    9.07    9.09
  15     7.99    8.04    8.35    8.65 ******* ******* ******* ******* *******    8.86    8.78    8.74    8.73    8.74    8.76    8.79    8.82    8.85    8.88    8.91    8.91    8.87    8.90    8.93    8.95
  16     7.75    7.78    8.01    8.30    8.65 ******* ******* ******* *******    8.68    8.54    8.50    8.49    8.51    8.53    8.56    8.58    8.61    8.64    8.67    8.65    8.69    8.73    8.76    8.78
  17     7.47    7.48    7.54    7.80    8.03    8.29    8.40    8.44    8.41    8.26    8.17    8.13    8.16    8.19    8.21    8.23    8.26    8.25    8.32    8.38    8.44    8.50    8.54    8.57    8.58
  18     7.15    7.16    7.18    7.22    7.26    7.31    7.59    7.67    7.68    7.65    7.64    7.66    7.70    7.76    7.80    7.78    7.88    7.98    8.07    8.15    8.21    8.27    8.31    8.34    8.35
  19     6.80    6.80    6.80    6.80    6.79    6.78    6.79    6.79    6.81    6.86    6.93    7.03    7.12    7.22    7.33    7.43    7.55    7.67    7.78    7.88    7.95    8.01    8.05    8.08    8.10
  20     6.44    6.43    6.41    6.38    6.33    6.28    6.23    6.20    6.21    6.28    6.39    6.52    6.65    6.78    6.91    7.03    7.18    7.32    7.45    7.56    7.65    7.72    7.77    7.81    7.83
  21     6.06    6.04    6.00    5.94    5.86    5.76    5.66    5.56    5.53    5.64    5.82    5.99    6.15    6.31    6.47    6.62    6.79    6.95    7.09    7.22    7.33    7.41    7.48    7.52    7.54
  22     5.67    5.64    5.59    5.50    5.38    5.23    5.05    4.84    4.64    4.91    5.22    5.47    5.68    5.87    6.05    6.21    6.39    6.56    6.72    6.87    6.99    7.09    7.16    7.21    7.24
  23     5.29    5.26    5.18    5.06    4.91    4.70    4.43    4.01    2.50    4.07    4.62    4.98    5.24    5.47    5.66    5.84    6.02    6.20    6.36    6.51    6.64    6.75    6.84    6.90    6.93
  24     4.93    4.88    4.79    4.66    4.48    4.24    3.92    3.46    2.22    3.52    4.11    4.52    4.82    5.07    5.28    5.47    5.67    5.86    6.03    6.17    6.30    6.41    6.51    6.58    6.61
  25     4.58    4.54    4.45    4.31    4.11    3.86    3.53    3.09    2.02    3.14    3.70    4.11    4.42    4.68    4.91    5.11    5.31    5.52    5.70    5.85    5.98    6.08    6.18    6.25    6.29
  26     4.26    4.22    4.12    3.98    3.78    3.53    3.21    2.80    1.86    2.84    3.35    3.74    4.05    4.31    4.53    4.74    4.95    5.17    5.36    5.53    5.67    5.78    5.86    5.93    5.98
  27     3.97    3.92    3.83    3.68    3.49    3.24    2.93    2.55    1.71    2.58    3.04    3.41    3.69    3.94    4.16    4.37    4.59    4.81    5.02    5.20    5.35    5.47    5.57    5.63    5.67
  28     3.70    3.65    3.56    3.42    3.23    2.99    2.70    2.34    1.57    2.35    2.76    3.09    3.35    3.58    3.79    3.99    4.22    4.45    4.67    4.86    5.03    5.17    5.27    5.34    5.39
  29     3.45    3.41    3.31    3.18    2.99    2.76    2.49    2.15    1.44    2.13    2.50    2.78    3.01    3.22    3.41    3.60    3.83    4.08    4.31    4.53    4.71    4.87    4.98    5.06    5.11
  30     3.23    3.18    3.10    2.96    2.78    2.56    2.29    1.98    1.32    1.93    2.24    2.49    2.68    2.84    3.00    3.18    3.42    3.68    3.95    4.19    4.40    4.57    4.70    4.79    4.84
  31     3.03    2.99    2.90    2.77    2.59    2.38    2.12    1.81    1.19    1.73    1.98    2.19    2.33    2.45    2.56    2.72    2.96    3.27    3.57    3.85    4.09    4.29    4.44    4.54    4.59
  32     2.85    2.81    2.72    2.60    2.43    2.22    1.97    1.67    1.07    1.54    1.74    1.89    1.98    2.02    2.06    2.17    2.45    2.82    3.19    3.52    3.80    4.02    4.19    4.30    4.36
  33     2.69    2.65    2.57    2.44    2.28    2.07    1.82    1.53    0.96    1.36    1.51    1.60    1.63    1.58    1.48    1.48    1.85    2.34    2.81    3.21    3.53    3.78    3.96    4.09    4.15
  34     2.56    2.52    2.43    2.31    2.14    1.94    1.70    1.40    0.84    1.20    1.31    1.35    1.29    1.11    0.79    0.46    1.13    1.86    2.47    2.94    3.30    3.57    3.77    3.90    3.96
  35     2.44    2.40    2.32    2.19    2.03    1.82    1.58    1.29    0.74    1.07    1.15    1.16    1.05    0.76    0.10   -1.11    0.43    1.49    2.20    2.73    3.12    3.40    3.60    3.73    3.80
  36     2.34    2.30    2.22    2.10    1.93    1.73    1.48    1.19    0.64    0.96    1.04    1.05    0.97    0.77    0.42    0.06    0.76    1.52    2.13    2.61    2.98    3.27    3.47    3.60    3.66
  37     2.26    2.22    2.14    2.02    1.85    1.65    1.40    1.10    0.54    0.88    0.97    1.01    0.98    0.90    0.79    0.77    1.15    1.66    2.15    2.56    2.90    3.17    3.37    3.50    3.56
  38     2.20    2.16    2.08    1.96    1.79    1.58    1.33    1.03    0.45    0.82    0.93    1.00    1.03    1.03    1.04    1.14    1.42    1.80    2.20    2.55    2.86    3.11    3.30    3.42    3.49
  39     2.17    2.12    2.04    1.92    1.75    1.54    1.29    0.98    0.37    0.77    0.91    1.00    1.07    1.12    1.20    1.33    1.58    1.90    2.24    2.56    2.84    3.08    3.26    3.38    3.44
  40     2.15    2.10    2.02    1.90    1.73    1.52    1.26    0.95    0.29    0.74    0.90    1.01    1.09    1.17    1.27    1.41    1.65    1.95    2.26    2.57    2.84    3.06    3.24    3.35    3.41
1
  HEAD IN LAYER   2 AT END OF TIME STEP   1 IN STRESS PERIOD    1
  ---------------------------------------------------------------------------

           1       2       3       4       5       6       7       8       9      10      11      12      13      14      15      16      17      18      19      20      21      22      23      24      25
 ...........................................................................................................................................................................................................
   1     9.37    9.36    9.33    9.31    9.30    9.30    9.33    9.39    9.45    9.52    9.59    9.65    9.72    9.77    9.82    9.87    9.91    9.94    9.94    9.90    9.77    9.82    9.87    9.90    9.91
   2     9.34    9.32    9.29    9.25    9.23    9.24    9.27    9.34    9.42    9.50    9.57    9.64    9.70    9.76    9.81    9.86    9.90    9.93    9.95    9.95    9.92    9.93    9.94    9.94    9.90
   3     9.29    9.26    9.20    9.13    9.10    9.11    9.15    9.26    9.36    9.45    9.53    9.61    9.67    9.73    9.79    9.84    9.88    9.92    9.95    9.96    9.97    9.97    9.97    9.95    9.88
   4     9.23    9.18    9.07    8.96    8.96    8.96    8.97    9.16    9.30    9.40    9.48    9.57    9.64    9.70    9.75    9.81    9.86    9.90    9.93    9.96    9.97    9.97    9.96    9.93    9.85
   5     9.16    9.09    8.96    8.96    8.96    8.96    8.96    9.13    9.26    9.36    9.44    9.52    9.59    9.65    9.71    9.77    9.82    9.87    9.91    9.93    9.94    9.94    9.92    9.88    9.81
   6     9.12    9.06    8.96    8.96    8.96    8.96    8.96    9.11    9.23    9.33    9.41    9.47    9.54    9.61    9.66    9.72    9.78    9.83    9.86    9.89    9.90    9.89    9.86    9.81    9.76
   7     9.09    9.04    8.96    8.96    8.96    8.96    8.96    9.09    9.20    9.29    9.37    9.43    9.50    9.56    9.62    9.68    9.73    9.78    9.81    9.83    9.84    9.82    9.78    9.69    9.71
   8     9.07    9.03    8.96    8.96    8.96    8.96    8.96    9.07    9.17    9.26    9.33    9.39    9.45    9.52    9.57    9.62    9.67    9.72    9.75    9.77    9.77    9.74    9.69    9.63    9.65
   9     9.03    9.01    8.96    8.96    8.96    8.96    8.96    9.04    9.13    9.21    9.28    9.35    9.40    9.46    9.51    9.56    9.61    9.65    9.68    9.69    9.68    9.64    9.54    9.57    9.59
  10     8.98    8.97    8.96    8.96    8.96    8.96    8.96    8.96    9.07    9.16    9.23    9.29    9.35    9.40    9.44    9.49    9.53    9.57    9.59    9.60    9.59    9.55    9.46    9.50    9.51
  11     8.89    8.91    8.94    8.96    8.96    8.96    8.96    8.96    9.03    9.11    9.17    9.22    9.27    9.31    9.35    9.40    9.43    9.47    9.49    9.50    9.49    9.46    9.38    9.41    9.42
  12     8.71    8.78    8.87    8.96    8.96    8.96    8.96    8.96    8.96    9.05    9.10    9.14    9.18    9.21    9.25    9.28    9.32    9.35    9.37    9.39    9.38    9.35    9.29    9.31    9.32
  13     8.36    8.58    8.74    8.88    8.96    8.96    8.96    8.96    8.96    9.00    9.02    9.04    9.06    9.08    9.11    9.15    9.18    9.21    9.24    9.25    9.26    9.24    9.18    9.20    9.21
  14     8.19    8.37    8.58    8.78    8.96    8.96    8.96    8.96    8.96    8.94    8.92    8.91    8.91    8.93    8.95    8.98    9.01    9.04    9.07    9.09    9.11    9.09    9.05    9.07    9.08
  15     7.98    8.03    8.34    8.64    8.95    8.96    8.96    8.96    8.96    8.85    8.77    8.74    8.73    8.74    8.76    8.78    8.81    8.84    8.88    8.91    8.90    8.86    8.89    8.92    8.94
  16     7.74    7.77    8.00    8.30    8.63    8.94    8.95    8.95    8.95    8.67    8.54    8.49    8.49    8.51    8.53    8.55    8.58    8.60    8.64    8.67    8.64    8.68    8.72    8.76    8.77
  17     7.46    7.48    7.53    7.79    8.02    8.27    8.39    8.42    8.40    8.25    8.17    8.13    8.15    8.18    8.21    8.23    8.26    8.24    8.32    8.38    8.43    8.49    8.53    8.56    8.57
  18     7.14    7.15    7.17    7.21    7.24    7.29    7.58    7.66    7.67    7.64    7.64    7.65    7.70    7.75    7.79    7.77    7.87    7.97    8.07    8.14    8.21    8.27    8.31    8.33    8.34
  19     6.80    6.80    6.80    6.79    6.78    6.77    6.78    6.78    6.80    6.85    6.92    7.02    7.11    7.22    7.32    7.42    7.55    7.67    7.78    7.87    7.95    8.00    8.05    8.08    8.09
  20     6.43    6.42    6.40    6.37    6.33    6.28    6.23    6.19    6.20    6.27    6.39    6.51    6.64    6.77    6.90    7.03    7.17    7.32    7.44    7.55    7.64    7.71    7.77    7.80    7.82
  21     6.05    6.03    5.99    5.93    5.85    5.76    5.65    5.56    5.52    5.64    5.81    5.98    6.15    6.31    6.46    6.61    6.78    6.94    7.09    7.21    7.32    7.40    7.47    7.51    7.54
  22     5.66    5.64    5.58    5.49    5.37    5.22    5.04    4.83    4.64    4.90    5.22    5.46    5.67    5.87    6.04    6.20    6.38    6.56    6.72    6.86    6.98    7.08    7.16    7.21    7.23
  23     5.29    5.25    5.17    5.06    4.90    4.70    4.42    4.01    3.04    4.07    4.61    4.97    5.24    5.46    5.66    5.83    6.01    6.19    6.35    6.50    6.63    6.75    6.83    6.89    6.92
  24     4.92    4.88    4.79    4.66    4.48    4.24    3.92    3.46    2.60    3.52    4.10    4.51    4.81    5.06    5.28    5.47    5.66    5.86    6.02    6.16    6.29    6.40    6.50    6.57    6.61
  25     4.58    4.53    4.44    4.30    4.11    3.85    3.53    3.09    2.33    3.14    3.69    4.11    4.41    4.68    4.90    5.10    5.31    5.51    5.69    5.85    5.98    6.08    6.17    6.25    6.29
  26     4.26    4.21    4.12    3.97    3.78    3.52    3.20    2.79    2.13    2.84    3.35    3.74    4.04    4.30    4.53    4.73    4.95    5.16    5.35    5.52    5.66    5.77    5.86    5.92    5.97
  27     3.96    3.91    3.82    3.68    3.48    3.24    2.93    2.55    1.95    2.58    3.04    3.40    3.69    3.94    4.16    4.36    4.58    4.81    5.01    5.19    5.34    5.47    5.56    5.62    5.67
  28     3.69    3.64    3.55    3.41    3.22    2.98    2.69    2.34    1.79    2.35    2.76    3.08    3.34    3.57    3.79    3.99    4.21    4.45    4.66    4.86    5.03    5.16    5.27    5.34    5.38
  29     3.45    3.40    3.31    3.17    2.99    2.76    2.48    2.14    1.64    2.13    2.49    2.78    3.01    3.21    3.40    3.59    3.82    4.07    4.31    4.52    4.71    4.86    4.98    5.06    5.10
  30     3.22    3.18    3.09    2.95    2.78    2.55    2.29    1.97    1.49    1.92    2.23    2.49    2.67    2.84    3.00    3.18    3.41    3.68    3.94    4.18    4.39    4.57    4.70    4.79    4.83
  31     3.02    2.98    2.89    2.76    2.59    2.37    2.12    1.81    1.35    1.72    1.98    2.19    2.33    2.44    2.56    2.71    2.96    3.26    3.56    3.84    4.08    4.28    4.43    4.53    4.58
  32     2.84    2.80    2.72    2.59    2.42    2.21    1.96    1.66    1.22    1.53    1.73    1.88    1.98    2.02    2.06    2.17    2.44    2.81    3.18    3.51    3.79    4.01    4.18    4.30    4.35
  33     2.69    2.65    2.56    2.44    2.27    2.06    1.82    1.52    1.09    1.36    1.51    1.59    1.62    1.57    1.47    1.47    1.84    2.34    2.80    3.20    3.52    3.77    3.96    4.08    4.14
  34     2.55    2.51    2.43    2.30    2.14    1.93    1.69    1.40    0.97    1.20    1.31    1.34    1.29    1.11    0.78    0.45    1.12    1.86    2.46    2.93    3.29    3.56    3.76    3.89    3.95
  35     2.43    2.39    2.31    2.19    2.02    1.82    1.58    1.29    0.86    1.06    1.15    1.15    1.05    0.75    0.09   -1.15    0.42    1.48    2.20    2.73    3.11    3.40    3.59    3.73    3.79
  36     2.34    2.29    2.21    2.09    1.92    1.72    1.48    1.19    0.76    0.96    1.04    1.05    0.96    0.76    0.41    0.05    0.75    1.51    2.12    2.61    2.98    3.26    3.46    3.59    3.66
  37     2.26    2.22    2.13    2.01    1.85    1.64    1.39    1.10    0.67    0.87    0.97    1.00    0.98    0.89    0.78    0.76    1.14    1.66    2.14    2.56    2.90    3.17    3.36    3.49    3.55
  38     2.20    2.16    2.07    1.95    1.78    1.58    1.33    1.03    0.58    0.81    0.93    0.99    1.02    1.02    1.04    1.13    1.41    1.80    2.19    2.55    2.86    3.11    3.29    3.42    3.48
  39     2.16    2.12    2.03    1.91    1.74    1.53    1.28    0.97    0.51    0.76    0.90    1.00    1.06    1.12    1.19    1.32    1.57    1.89    2.23    2.55    2.84    3.07    3.25    3.37    3.43
  40     2.14    2.10    2.01    1.89    1.72    1.51    1.26    0.94    0.45    0.74    0.89    1.00    1.08    1.16    1.26    1.41    1.64    1.94    2.26    2.56    2.83    3.06    3.23    3.35    3.41
1
  HEAD IN LAYER   3 AT END OF TIME STEP   1 IN STRESS PERIOD    1
  ---------------------------------------------------------------------------

           1       2       3       4       5       6       7       8       9      10      11      12      13      14      15      16      17      18      19      20      21      22      23      24      25
 ...........................................................................................................................................................................................................
   1     9.09    9.09    9.07    9.06    9.05    9.05    9.07    9.10    9.14    9.18    9.23    9.27    9.31    9.35    9.40    9.46    9.52    9.59    9.66    9.72    9.76    9.82    9.86    9.90    9.91
   2     9.08    9.06    9.05    9.03    9.01    9.01    9.03    9.07    9.12    9.16    9.21    9.25    9.29    9.33    9.38    9.44    9.51    9.58    9.65    9.72    9.77    9.82    9.87    9.89    9.90
   3     9.04    9.02    8.99    8.95    8.94    8.94    8.96    9.02    9.08    9.13    9.18    9.22    9.26    9.29    9.34    9.40    9.47    9.56    9.63    9.70    9.76    9.81    9.85    9.88    9.88
   4     9.00    8.97    8.92    8.86    8.85    8.85    8.86    8.96    9.03    9.08    9.13    9.17    9.20    9.23    9.26    9.33    9.42    9.52    9.60    9.68    9.74    9.78    9.82    9.84    9.85
   5     8.95    8.92    8.85    8.84    8.84    8.84    8.84    8.93    9.00    9.05    9.09    9.12    9.14    9.14    9.14    9.24    9.36    9.47    9.57    9.64    9.70    9.75    9.78    9.80    9.80
   6     8.91    8.88    8.83    8.83    8.83    8.83    8.83    8.90    8.96    9.01    9.05    9.08    9.08    9.05    8.92    9.15    9.30    9.43    9.52    9.60    9.66    9.71    9.73    9.75    9.76
   7     8.88    8.85    8.81    8.81    8.81    8.81    8.81    8.87    8.93    8.98    9.02    9.04    9.06    9.06    9.06    9.16    9.28    9.39    9.48    9.55    9.61    9.65    9.68    9.69    9.71
   8     8.84    8.82    8.79    8.79    8.79    8.79    8.79    8.84    8.90    8.94    8.98    9.01    9.04    9.06    9.10    9.16    9.25    9.35    9.43    9.50    9.55    9.59    9.62    9.63    9.65
   9     8.80    8.79    8.76    8.76    8.76    8.76    8.76    8.80    8.85    8.90    8.94    8.98    9.01    9.04    9.09    9.14    9.22    9.30    9.37    9.44    9.49    9.52    9.54    9.57    9.58
  10     8.75    8.74    8.73    8.73    8.73    8.74    8.74    8.74    8.80    8.85    8.89    8.93    8.97    9.00    9.05    9.10    9.16    9.24    9.30    9.36    9.41    9.44    9.46    9.49    9.51
  11     8.67    8.67    8.68    8.69    8.70    8.70    8.70    8.71    8.75    8.79    8.83    8.87    8.90    8.94    8.98    9.03    9.09    9.16    9.22    9.28    9.32    9.36    9.38    9.41    9.42
  12     8.54    8.57    8.61    8.65    8.65    8.66    8.67    8.67    8.68    8.72    8.76    8.79    8.82    8.85    8.89    8.94    9.00    9.06    9.12    9.18    9.23    9.26    9.28    9.31    9.32
  13     8.35    8.42    8.49    8.55    8.59    8.60    8.61    8.62    8.63    8.65    8.67    8.68    8.71    8.74    8.78    8.83    8.88    8.95    9.01    9.06    9.11    9.15    9.18    9.20    9.21
  14     8.18    8.25    8.34    8.44    8.52    8.52    8.53    8.54    8.55    8.55    8.56    8.56    8.58    8.61    8.64    8.69    8.75    8.81    8.87    8.93    8.99    9.02    9.04    9.07    9.08
  15     7.98    8.02    8.14    8.28    8.43    8.44    8.44    8.45    8.46    8.42    8.40    8.40    8.41    8.44    8.48    8.53    8.59    8.65    8.72    8.78    8.83    8.86    8.89    8.92    8.94
  16     7.74    7.76    7.87    8.01    8.18    8.33    8.33    8.34    8.35    8.22    8.18    8.18    8.21    8.25    8.29    8.34    8.41    8.47    8.54    8.60    8.63    8.68    8.72    8.76    8.77
  17     7.46    7.47    7.52    7.63    7.75    7.88    7.93    7.95    7.95    7.89    7.87    7.88    7.93    7.98    8.03    8.09    8.16    8.23    8.31    8.37    8.43    8.49    8.53    8.56    8.57
  18     7.14    7.15    7.17    7.20    7.23    7.27    7.37    7.41    7.42    7.43    7.46    7.50    7.56    7.63    7.70    7.76    7.87    7.97    8.06    8.14    8.21    8.26    8.31    8.33    8.34
  19     6.79    6.79    6.79    6.79    6.78    6.77    6.77    6.77    6.79    6.84    6.91    7.01    7.11    7.21    7.31    7.42    7.54    7.67    7.78    7.87    7.94    8.00    8.05    8.08    8.09
  20     6.43    6.42    6.40    6.37    6.32    6.27    6.22    6.19    6.20    6.27    6.38    6.51    6.64    6.77    6.90    7.03    7.17    7.31    7.44    7.55    7.64    7.71    7.77    7.80    7.82
  21     6.05    6.03    5.99    5.93    5.85    5.76    5.65    5.55    5.52    5.63    5.81    5.98    6.14    6.31    6.46    6.61    6.78    6.94    7.09    7.21    7.32    7.40    7.47    7.51    7.53
  22     5.66    5.64    5.58    5.49    5.37    5.22    5.04    4.83    4.64    4.90    5.21    5.46    5.67    5.86    6.04    6.20    6.38    6.56    6.71    6.86    6.98    7.08    7.16    7.21    7.23
  23     5.28    5.25    5.17    5.05    4.90    4.70    4.42    4.01    3.15    4.08    4.61    4.97    5.23    5.46    5.66    5.83    6.01    6.19    6.35    6.50    6.63    6.75    6.83    6.89    6.92
  24     4.92    4.88    4.78    4.65    4.47    4.24    3.92    3.47    2.68    3.52    4.10    4.51    4.81    5.06    5.28    5.47    5.66    5.85    6.02    6.16    6.29    6.40    6.50    6.57    6.60
  25     4.58    4.53    4.44    4.30    4.11    3.85    3.52    3.09    2.40    3.14    3.69    4.10    4.41    4.67    4.90    5.10    5.31    5.51    5.69    5.84    5.98    6.08    6.17    6.25    6.29
  26     4.26    4.21    4.11    3.97    3.78    3.52    3.20    2.79    2.19    2.84    3.34    3.74    4.04    4.30    4.53    4.73    4.95    5.16    5.35    5.52    5.66    5.77    5.85    5.92    5.97
  27     3.96    3.91    3.82    3.68    3.48    3.23    2.93    2.55    2.00    2.58    3.04    3.40    3.68    3.93    4.16    4.36    4.58    4.81    5.01    5.19    5.34    5.47    5.56    5.62    5.67
  28     3.69    3.64    3.55    3.41    3.22    2.98    2.69    2.34    1.83    2.35    2.75    3.08    3.34    3.57    3.78    3.98    4.21    4.44    4.66    4.86    5.02    5.16    5.27    5.34    5.38
  29     3.44    3.40    3.31    3.17    2.98    2.75    2.48    2.15    1.68    2.13    2.49    2.78    3.01    3.21    3.40    3.59    3.82    4.07    4.31    4.52    4.71    4.86    4.98    5.06    5.10
  30     3.22    3.18    3.09    2.95    2.77    2.55    2.29    1.97    1.53    1.92    2.23    2.48    2.67    2.83    3.00    3.17    3.41    3.68    3.94    4.18    4.39    4.56    4.70    4.78    4.83
  31     3.02    2.98    2.89    2.76    2.59    2.37    2.11    1.81    1.39    1.72    1.98    2.18    2.33    2.44    2.56    2.71    2.96    3.26    3.56    3.84    4.08    4.28    4.43    4.53    4.58
  32     2.84    2.80    2.71    2.59    2.42    2.21    1.96    1.66    1.25    1.53    1.73    1.88    1.98    2.02    2.06    2.16    2.44    2.81    3.18    3.51    3.79    4.01    4.18    4.30    4.35
  33     2.69    2.64    2.56    2.43    2.27    2.06    1.82    1.52    1.12    1.36    1.50    1.59    1.62    1.57    1.47    1.47    1.84    2.33    2.80    3.20    3.52    3.77    3.96    4.08    4.14
  34     2.55    2.51    2.42    2.30    2.14    1.93    1.69    1.40    1.00    1.20    1.30    1.34    1.28    1.11    0.78    0.44    1.12    1.86    2.46    2.93    3.29    3.56    3.76    3.89    3.95
  35     2.43    2.39    2.31    2.18    2.02    1.82    1.57    1.29    0.89    1.06    1.15    1.15    1.04    0.75    0.08   -1.24    0.41    1.48    2.20    2.73    3.11    3.39    3.59    3.72    3.79
  36     2.33    2.29    2.21    2.09    1.92    1.72    1.48    1.19    0.79    0.96    1.04    1.04    0.96    0.76    0.41    0.04    0.75    1.51    2.12    2.60    2.98    3.26    3.46    3.59    3.66
  37     2.26    2.21    2.13    2.01    1.84    1.64    1.39    1.10    0.70    0.87    0.97    1.00    0.97    0.89    0.78    0.76    1.14    1.66    2.14    2.56    2.90    3.16    3.36    3.49    3.55
  38     2.20    2.16    2.07    1.95    1.78    1.58    1.33    1.03    0.61    0.81    0.92    0.99    1.02    1.02    1.03    1.13    1.41    1.80    2.19    2.55    2.85    3.10    3.29    3.42    3.48
  39     2.16    2.12    2.03    1.91    1.74    1.53    1.28    0.97    0.54    0.76    0.90    0.99    1.06    1.11    1.19    1.32    1.57    1.89    2.23    2.55    2.84    3.07    3.25    3.37    3.43
  40     2.14    2.10    2.01    1.89    1.72    1.51    1.25    0.94    0.49    0.74    0.89    1.00    1.08    1.16    1.26    1.40    1.64    1.94    2.26    2.56    2.83    3.05    3.23    3.35    3.41
1
  HEAD IN LAYER   4 AT END OF TIME STEP   1 IN STRESS PERIOD    1
  ---------------------------------------------------------------------------

           1       2       3       4       5       6       7       8       9      10      11      12      13      14      15      16      17      18      19      20      21      22      23      24      25
 ...........................................................................................................................................................................................................
   1     8.82    8.82    8.81    8.81    8.81    8.80    8.81    8.82    8.83    8.84    8.86    8.88    8.91    8.94    8.98    9.04    9.14    9.25    9.38    9.54    9.75    9.81    9.86    9.89    9.91
   2     8.81    8.81    8.80    8.80    8.79    8.79    8.80    8.80    8.82    8.83    8.85    8.86    8.88    8.91    8.95    9.01    9.11    9.23    9.35    9.49    9.62    9.72    9.79    9.85    9.90
   3     8.79    8.79    8.78    8.78    8.77    8.77    8.77    8.78    8.79    8.80    8.82    8.83    8.84    8.85    8.89    8.95    9.06    9.19    9.32    9.44    9.55    9.65    9.73    9.81    9.88
   4     8.77    8.77    8.76    8.75    8.75    8.75    8.75    8.75    8.76    8.77    8.77    8.78    8.77    8.76    8.77    8.86    8.99    9.14    9.27    9.40    9.50    9.59    9.68    9.76    9.84
   5     8.74    8.74    8.73    8.73    8.72    8.72    8.72    8.73    8.73    8.74    8.73    8.72    8.69    8.63    8.57    8.72    8.90    9.08    9.23    9.35    9.46    9.56    9.64    9.72    9.80
   6     8.71    8.70    8.70    8.70    8.69    8.69    8.69    8.70    8.70    8.70    8.70    8.68    8.63    8.49    8.18    8.57    8.83    9.03    9.18    9.31    9.42    9.52    9.61    9.69    9.75
   7     8.67    8.66    8.66    8.66    8.66    8.66    8.66    8.66    8.66    8.67    8.66    8.65    8.62    8.56    8.49    8.64    8.82    9.00    9.14    9.27    9.38    9.48    9.58    9.68    9.70
   8     8.62    8.62    8.62    8.62    8.62    8.62    8.62    8.62    8.62    8.63    8.63    8.63    8.62    8.61    8.62    8.70    8.83    8.98    9.11    9.23    9.34    9.45    9.55    9.63    9.65
   9     8.57    8.57    8.56    8.56    8.57    8.57    8.57    8.57    8.58    8.59    8.60    8.61    8.61    8.63    8.66    8.72    8.83    8.95    9.07    9.18    9.29    9.40    9.53    9.57    9.58
  10     8.51    8.51    8.50    8.50    8.51    8.52    8.51    8.52    8.53    8.54    8.55    8.57    8.58    8.61    8.65    8.71    8.80    8.91    9.02    9.12    9.23    9.34    9.46    9.49    9.51
  11     8.45    8.44    8.43    8.43    8.43    8.45    8.45    8.45    8.46    8.48    8.49    8.51    8.53    8.56    8.61    8.66    8.75    8.85    8.95    9.05    9.16    9.26    9.37    9.40    9.42
  12     8.38    8.35    8.34    8.34    8.34    8.35    8.37    8.38    8.39    8.40    8.41    8.43    8.46    8.49    8.54    8.59    8.68    8.77    8.87    8.97    9.07    9.17    9.28    9.31    9.32
  13     8.34    8.26    8.23    8.22    8.22    8.23    8.26    8.27    8.29    8.30    8.31    8.33    8.36    8.40    8.45    8.50    8.59    8.68    8.78    8.88    8.97    9.07    9.17    9.20    9.21
  14     8.18    8.13    8.10    8.09    8.08    8.09    8.10    8.12    8.14    8.17    8.19    8.21    8.24    8.28    8.34    8.40    8.48    8.58    8.67    8.77    8.86    8.96    9.04    9.07    9.08
  15     7.98    8.01    7.94    7.92    7.92    7.92    7.92    7.93    7.96    7.99    8.03    8.06    8.10    8.15    8.20    8.27    8.36    8.46    8.56    8.65    8.75    8.85    8.89    8.92    8.94
  16     7.74    7.76    7.73    7.72    7.72    7.72    7.72    7.73    7.75    7.78    7.82    7.87    7.93    7.99    8.05    8.13    8.23    8.35    8.44    8.53    8.63    8.68    8.72    8.75    8.77
  17     7.46    7.47    7.51    7.48    7.48    7.49    7.48    7.48    7.50    7.53    7.58    7.63    7.70    7.78    7.86    7.95    8.07    8.23    8.31    8.37    8.43    8.49    8.53    8.56    8.57
  18     7.14    7.15    7.17    7.19    7.22    7.25    7.16    7.15    7.18    7.22    7.28    7.34    7.42    7.51    7.61    7.75    7.86    7.97    8.06    8.14    8.21    8.26    8.31    8.33    8.34
  19     6.79    6.79    6.79    6.79    6.78    6.77    6.76    6.76    6.78    6.83    6.91    7.01    7.10    7.21    7.31    7.42    7.54    7.67    7.77    7.87    7.94    8.00    8.05    8.08    8.09
  20     6.43    6.42    6.40    6.36    6.32    6.27    6.22    6.19    6.19    6.27    6.38    6.51    6.64    6.77    6.90    7.02    7.17    7.31    7.44    7.55    7.64    7.71    7.76    7.80    7.82
  21     6.05    6.03    5.99    5.93    5.85    5.75    5.65    5.55    5.52    5.63    5.81    5.98    6.14    6.30    6.46    6.60    6.78    6.94    7.09    7.21    7.32    7.40    7.47    7.51    7.53
  22     5.66    5.63    5.58    5.49    5.37    5.22    5.04    4.83    4.64    4.90    5.21    5.46    5.67    5.86    6.04    6.20    6.38    6.56    6.71    6.86    6.98    7.08    7.15    7.21    7.23
  23     5.28    5.25    5.17    5.05    4.90    4.69    4.42    4.02    3.27    4.08    4.61    4.97    5.23    5.46    5.66    5.83    6.01    6.19    6.35    6.50    6.63    6.74    6.83    6.89    6.92
  24     4.92    4.87    4.78    4.65    4.47    4.23    3.91    3.47    2.77    3.53    4.10    4.51    4.81    5.06    5.28    5.46    5.66    5.85    6.02    6.16    6.29    6.40    6.50    6.57    6.60
  25     4.57    4.53    4.44    4.30    4.10    3.85    3.52    3.09    2.48    3.14    3.69    4.10    4.41    4.67    4.90    5.10    5.30    5.51    5.69    5.84    5.97    6.08    6.17    6.24    6.28
  26     4.25    4.21    4.11    3.97    3.77    3.52    3.20    2.80    2.25    2.84    3.34    3.74    4.04    4.30    4.53    4.73    4.95    5.16    5.35    5.52    5.66    5.77    5.85    5.92    5.97
  27     3.96    3.91    3.82    3.67    3.48    3.23    2.93    2.55    2.06    2.58    3.03    3.40    3.68    3.93    4.16    4.36    4.58    4.81    5.01    5.19    5.34    5.47    5.56    5.62    5.67
  28     3.69    3.64    3.55    3.41    3.22    2.98    2.69    2.34    1.89    2.35    2.75    3.08    3.34    3.57    3.78    3.98    4.21    4.44    4.66    4.86    5.02    5.16    5.26    5.34    5.38
  29     3.44    3.40    3.30    3.17    2.98    2.75    2.48    2.15    1.72    2.13    2.49    2.78    3.00    3.21    3.40    3.59    3.82    4.07    4.30    4.52    4.71    4.86    4.98    5.05    5.10
  30     3.22    3.17    3.09    2.95    2.77    2.55    2.29    1.97    1.57    1.92    2.23    2.48    2.67    2.83    2.99    3.17    3.41    3.68    3.94    4.18    4.39    4.56    4.70    4.78    4.83
  31     3.02    2.98    2.89    2.76    2.58    2.37    2.11    1.81    1.43    1.72    1.97    2.18    2.33    2.44    2.55    2.71    2.95    3.26    3.56    3.84    4.08    4.28    4.43    4.53    4.58
  32     2.84    2.80    2.71    2.59    2.42    2.21    1.96    1.66    1.29    1.53    1.73    1.88    1.98    2.02    2.06    2.16    2.44    2.81    3.18    3.51    3.79    4.01    4.18    4.30    4.35
  33     2.68    2.64    2.56    2.43    2.27    2.06    1.81    1.53    1.15    1.36    1.50    1.59    1.62    1.57    1.47    1.46    1.84    2.33    2.80    3.20    3.52    3.77    3.96    4.08    4.14
  34     2.55    2.51    2.42    2.30    2.13    1.93    1.69    1.40    1.03    1.20    1.30    1.34    1.28    1.10    0.78    0.42    1.11    1.86    2.46    2.93    3.29    3.56    3.76    3.89    3.95
  35     2.43    2.39    2.31    2.18    2.02    1.82    1.57    1.29    0.92    1.06    1.14    1.15    1.04    0.75    0.07   -1.35    0.40    1.48    2.20    2.72    3.11    3.39    3.59    3.72    3.79
  36     2.33    2.29    2.21    2.09    1.92    1.72    1.47    1.19    0.82    0.96    1.03    1.04    0.96    0.76    0.41    0.02    0.75    1.51    2.12    2.60    2.98    3.26    3.46    3.59    3.66
  37     2.25    2.21    2.13    2.01    1.84    1.64    1.39    1.10    0.72    0.87    0.96    1.00    0.97    0.89    0.78    0.75    1.14    1.65    2.14    2.56    2.90    3.16    3.36    3.49    3.55
  38     2.20    2.15    2.07    1.95    1.78    1.57    1.33    1.03    0.64    0.81    0.92    0.99    1.02    1.02    1.03    1.12    1.41    1.79    2.19    2.55    2.85    3.10    3.29    3.41    3.48
  39     2.16    2.11    2.03    1.91    1.74    1.53    1.28    0.97    0.57    0.76    0.90    0.99    1.06    1.11    1.19    1.32    1.57    1.89    2.23    2.55    2.83    3.07    3.25    3.37    3.43
  40     2.14    2.09    2.01    1.89    1.72    1.51    1.25    0.94    0.52    0.74    0.89    1.00    1.08    1.16    1.26    1.40    1.64    1.94    2.25    2.56    2.83    3.05    3.23    3.35    3.41
1
  HEAD IN LAYER   5 AT END OF TIME STEP   1 IN STRESS PERIOD    1
  ---------------------------------------------------------------------------

           1       2       3       4       5       6       7       8       9      10      11      12      13      14      15      16      17      18      19      20      21      22      23      24      25
 ...........................................................................................................................................................................................................
   1     8.81    8.81    8.81    8.81    8.80    8.80    8.81    8.81    8.83    8.84    8.86    8.88    8.90    8.94    8.98    9.04    9.13    9.25    9.38    9.54    9.74    9.81    9.86    9.89    9.91
   2     8.81    8.80    8.80    8.80    8.79    8.79    8.79    8.80    8.81    8.83    8.84    8.86    8.88    8.91    8.95    9.01    9.11    9.23    9.35    9.49    9.62    9.72    9.79    9.85    9.90
   3     8.79    8.79    8.78    8.78    8.77    8.77    8.77    8.78    8.79    8.80    8.81    8.83    8.84    8.85    8.88    8.95    9.06    9.19    9.32    9.44    9.55    9.65    9.73    9.81    9.87
   4     8.77    8.76    8.76    8.75    8.74    8.74    8.75    8.75    8.76    8.77    8.77    8.78    8.77    8.76    8.77    8.85    8.99    9.14    9.27    9.40    9.50    9.59    9.68    9.76    9.84
   5     8.74    8.74    8.73    8.73    8.72    8.72    8.72    8.73    8.73    8.73    8.73    8.72    8.69    8.63    8.56    8.71    8.90    9.08    9.23    9.35    9.46    9.56    9.64    9.72    9.80
   6     8.70    8.70    8.70    8.69    8.69    8.69    8.69    8.69    8.70    8.70    8.70    8.68    8.63    8.49    8.10    8.56    8.82    9.03    9.18    9.31    9.42    9.52    9.61    9.69    9.75
   7     8.66    8.66    8.66    8.66    8.66    8.66    8.66    8.66    8.66    8.67    8.66    8.65    8.62    8.56    8.49    8.64    8.82    9.00    9.14    9.27    9.38    9.48    9.58    9.68    9.70
   8     8.62    8.62    8.62    8.62    8.62    8.61    8.61    8.62    8.62    8.63    8.63    8.63    8.62    8.61    8.62    8.70    8.83    8.98    9.11    9.23    9.34    9.45    9.55    9.63    9.65
   9     8.57    8.56    8.56    8.56    8.57    8.57    8.57    8.57    8.58    8.59    8.60    8.61    8.61    8.62    8.66    8.72    8.82    8.95    9.07    9.18    9.29    9.40    9.53    9.57    9.58
  10     8.51    8.50    8.50    8.50    8.51    8.51    8.51    8.52    8.52    8.54    8.55    8.57    8.58    8.61    8.65    8.70    8.80    8.91    9.02    9.12    9.23    9.34    9.45    9.49    9.51
  11     8.44    8.43    8.43    8.43    8.43    8.44    8.45    8.45    8.46    8.48    8.49    8.51    8.53    8.56    8.60    8.66    8.75    8.85    8.95    9.05    9.16    9.26    9.37    9.40    9.42
  12     8.37    8.35    8.34    8.33    8.34    8.35    8.37    8.38    8.39    8.40    8.41    8.43    8.46    8.49    8.54    8.59    8.68    8.77    8.87    8.97    9.07    9.17    9.28    9.31    9.32
  13     8.31    8.26    8.23    8.22    8.22    8.23    8.26    8.27    8.29    8.30    8.31    8.33    8.36    8.40    8.45    8.50    8.59    8.68    8.78    8.87    8.97    9.07    9.17    9.19    9.21
  14     8.16    8.13    8.10    8.08    8.08    8.08    8.10    8.11    8.14    8.16    8.19    8.21    8.24    8.28    8.33    8.39    8.48    8.58    8.67    8.77    8.86    8.96    9.04    9.07    9.08
  15     7.97    7.98    7.94    7.92    7.91    7.91    7.92    7.93    7.96    7.99    8.03    8.06    8.10    8.14    8.20    8.27    8.36    8.46    8.56    8.65    8.75    8.85    8.89    8.92    8.94
  16     7.73    7.74    7.72    7.72    7.72    7.72    7.71    7.72    7.74    7.77    7.82    7.87    7.93    7.99    8.05    8.13    8.23    8.34    8.44    8.52    8.63    8.68    8.72    8.75    8.77
  17     7.45    7.46    7.49    7.47    7.48    7.48    7.47    7.48    7.50    7.53    7.58    7.62    7.70    7.77    7.86    7.95    8.07    8.22    8.30    8.37    8.43    8.49    8.53    8.56    8.57
  18     7.13    7.14    7.16    7.17    7.19    7.20    7.16    7.15    7.17    7.21    7.27    7.34    7.42    7.51    7.61    7.74    7.86    7.97    8.06    8.14    8.21    8.26    8.30    8.33    8.34
  19     6.79    6.79    6.79    6.78    6.77    6.76    6.74    6.73    6.76    6.81    6.89    6.99    7.09    7.20    7.30    7.41    7.54    7.66    7.77    7.87    7.94    8.00    8.04    8.07    8.09
  20     6.42    6.41    6.39    6.36    6.32    6.27    6.21    6.18    6.19    6.26    6.38    6.50    6.63    6.76    6.89    7.02    7.17    7.31    7.44    7.55    7.64    7.71    7.76    7.80    7.82
  21     6.04    6.02    5.98    5.92    5.84    5.75    5.64    5.55    5.51    5.63    5.81    5.97    6.14    6.30    6.45    6.60    6.77    6.94    7.08    7.21    7.32    7.40    7.47    7.51    7.53
  22     5.66    5.63    5.57    5.48    5.36    5.21    5.03    4.83    4.66    4.90    5.21    5.46    5.67    5.86    6.04    6.19    6.37    6.55    6.71    6.86    6.98    7.08    7.15    7.20    7.23
  23     5.28    5.24    5.16    5.05    4.89    4.69    4.42    4.05    3.49    4.10    4.60    4.97    5.23    5.46    5.65    5.82    6.01    6.19    6.35    6.50    6.63    6.74    6.83    6.89    6.92
  24     4.91    4.87    4.78    4.65    4.47    4.23    3.91    3.50    2.94    3.54    4.09    4.51    4.81    5.06    5.27    5.46    5.66    5.85    6.02    6.16    6.29    6.40    6.50    6.57    6.60
  25     4.57    4.52    4.43    4.29    4.10    3.85    3.52    3.12    2.62    3.15    3.69    4.10    4.41    4.67    4.90    5.09    5.30    5.51    5.69    5.84    5.97    6.07    6.17    6.24    6.28
  26     4.25    4.20    4.11    3.96    3.77    3.51    3.20    2.82    2.37    2.85    3.34    3.73    4.04    4.30    4.52    4.72    4.94    5.16    5.35    5.52    5.66    5.77    5.85    5.92    5.97
  27     3.95    3.91    3.81    3.67    3.47    3.23    2.92    2.57    2.17    2.59    3.03    3.40    3.68    3.93    4.15    4.35    4.58    4.81    5.01    5.19    5.34    5.46    5.56    5.62    5.66
  28     3.68    3.64    3.54    3.40    3.21    2.97    2.68    2.35    1.98    2.35    2.75    3.08    3.34    3.57    3.78    3.98    4.20    4.44    4.66    4.85    5.02    5.16    5.26    5.33    5.38
  29     3.44    3.39    3.30    3.16    2.98    2.75    2.47    2.16    1.81    2.14    2.48    2.77    3.00    3.20    3.40    3.58    3.82    4.07    4.30    4.52    4.70    4.86    4.97    5.05    5.10
  30     3.21    3.17    3.08    2.95    2.77    2.55    2.28    1.98    1.65    1.93    2.23    2.48    2.66    2.83    2.99    3.16    3.40    3.67    3.94    4.18    4.39    4.56    4.69    4.78    4.83
  31     3.01    2.97    2.88    2.75    2.58    2.36    2.11    1.82    1.50    1.73    1.97    2.18    2.32    2.43    2.55    2.70    2.95    3.26    3.56    3.84    4.08    4.28    4.43    4.53    4.58
  32     2.84    2.79    2.71    2.58    2.41    2.20    1.95    1.67    1.36    1.54    1.73    1.88    1.97    2.01    2.05    2.15    2.44    2.81    3.18    3.51    3.79    4.01    4.18    4.29    4.35
  33     2.68    2.64    2.55    2.43    2.26    2.05    1.81    1.53    1.22    1.36    1.50    1.59    1.62    1.56    1.47    1.45    1.83    2.33    2.80    3.20    3.52    3.77    3.95    4.08    4.14
  34     2.54    2.50    2.42    2.29    2.13    1.92    1.68    1.41    1.09    1.20    1.30    1.34    1.28    1.10    0.77    0.37    1.10    1.85    2.46    2.93    3.29    3.56    3.76    3.89    3.95
  35     2.42    2.38    2.30    2.18    2.01    1.81    1.57    1.29    0.98    1.06    1.14    1.15    1.04    0.74    0.03   -2.03    0.36    1.48    2.19    2.72    3.11    3.39    3.59    3.72    3.79
  36     2.33    2.29    2.20    2.08    1.92    1.71    1.47    1.19    0.87    0.96    1.03    1.04    0.96    0.75    0.40   -0.03    0.73    1.51    2.12    2.60    2.97    3.25    3.46    3.59    3.65
  37     2.25    2.21    2.13    2.00    1.84    1.63    1.39    1.11    0.78    0.87    0.96    1.00    0.97    0.89    0.77    0.74    1.13    1.65    2.14    2.55    2.89    3.16    3.36    3.49    3.55
  38     2.19    2.15    2.07    1.94    1.78    1.57    1.32    1.04    0.71    0.81    0.92    0.99    1.01    1.02    1.03    1.11    1.40    1.79    2.18    2.54    2.85    3.10    3.29    3.41    3.48
  39     2.15    2.11    2.03    1.90    1.73    1.53    1.27    0.98    0.64    0.77    0.90    0.99    1.05    1.11    1.18    1.31    1.56    1.89    2.23    2.55    2.83    3.07    3.25    3.37    3.43
  40     2.13    2.09    2.01    1.88    1.71    1.50    1.25    0.95    0.60    0.74    0.88    0.99    1.08    1.16    1.25    1.39    1.64    1.94    2.25    2.55    2.82    3.05    3.23    3.34    3.40

 HEAD WILL BE SAVED ON UNIT 1028 AT END OF TIME STEP    1, STRESS PERIOD    1


  VOLUME BUDGET FOR ENTIRE MODEL AT END OF TIME STEP    1, STRESS PERIOD   1
  ---------------------------------------------------------------------------------------------------

     CUMULATIVE VOLUME      L**3       RATES FOR THIS TIME STEP      L**3/T          PACKAGE NAME    
     ------------------                 ------------------------                     ----------------

           IN:                                      IN:
           ---                                      ---
                 WEL =           0.0000                   WEL =           0.0000     WEL-1                            
                 RIV =           0.0000                   RIV =           0.0000     RIV-1                            
                 GHB =    30324107.4703                   GHB =       83079.7465     GHB-1                            
                RCHA =   310645568.7500                  RCHA =      851083.7500     RCH-1                            

            TOTAL IN =   340969676.2203              TOTAL IN =      934163.4965

          OUT:                                     OUT:
          ----                                     ----
                 WEL =   122275000.0000                   WEL =      335000.0000     WEL-1                            
                 RIV =   201443236.4218                   RIV =      551899.2779     RIV-1                            
                 GHB =    17251626.6064                   GHB =       47264.7304     GHB-1                            
                RCHA =           0.0000                  RCHA =           0.0000     RCH-1                            

           TOTAL OUT =   340969863.0282             TOTAL OUT =      934164.0083

            IN - OUT =        -186.8079              IN - OUT =          -0.5118

 PERCENT DISCREPANCY =          -0.00     PERCENT DISCREPANCY =          -0.00




         TIME SUMMARY AT END OF TIME STEP    1 IN STRESS PERIOD    1
                    SECONDS     MINUTES      HOURS       DAYS        YEARS
                    -----------------------------------------------------------
   TIME STEP LENGTH 3.15360E+07 5.25600E+05  8760.0      365.00     0.99932    
 STRESS PERIOD TIME 3.15360E+07 5.25600E+05  8760.0      365.00     0.99932    
         TOTAL TIME 3.15360E+07 5.25600E+05  8760.0      365.00     0.99932    


end timestep

