                                   MODFLOW 6
                U.S. GEOLOGICAL SURVEY MODULAR HYDROLOGIC MODEL
                          GROUNDWATER FLOW MODEL (GWF)
                            VERSION 6.4.2 06/28/2023

   MODFLOW 6 compiled Jul 05 2023 20:29:14 with Intel(R) Fortran Intel(R) 64
   Compiler Classic for applications running on Intel(R) 64, Version 2021.7.0
                             Build 20220726_000000

This software has been approved for release by the U.S. Geological 
Survey (USGS). Although the software has been subjected to rigorous 
review, the USGS reserves the right to update the software as needed 
pursuant to further analysis and review. No warranty, expressed or 
implied, is made by the USGS or the U.S. Government as to the 
functionality of the software and related material nor shall the 
fact of release constitute any such warranty. Furthermore, the 
software is released on condition that neither the USGS nor the U.S. 
Government shall be held liable for any damages resulting from its 
authorized or unauthorized use. Also refer to the USGS Water 
Resources Software User Rights Notice for complete use, copyright, 
and distribution information.


As a work of the United States Government, this USGS product is 
in the public domain within the United States. You can copy, 
modify, distribute, and perform the work, even for commercial 
purposes, all without asking permission. Additionally, USGS 
waives copyright and related rights in the work worldwide 
through CC0 1.0 Universal Public Domain Dedication 
(https://creativecommons.org/publicdomain/zero/1.0/).

The following GNU Lesser General Public License (LGPL) libraries
are used in this USGS product:

    SPARSKIT version 2.0
      ilut, luson, and qsplit 
      (https://www-users.cse.umn.edu/~saad/software/SPARSKIT/)

    RCM - Reverse Cuthill McKee Ordering
      (https://people.math.sc.edu/Burkardt/f_src/rcm/rcm.html)

    BLAS - Basic Linear Algebra Subprograms Level 1
      (https://people.math.sc.edu/Burkardt/f_src/blas1_d/blas1_d.html)

    SPARSEKIT - Sparse Matrix Utility Package
      amux, dperm, dvperm, rperm, and cperm
      (https://people.sc.fsu.edu/~jburkardt/f77_src/sparsekit/sparsekit.html)

The following BSD-3 License libraries are used in this USGS product:

    Modern Fortran DAG Library
      Copyright (c) 2018, Jacob Williams
      All rights reserved.
      (https://github.com/jacobwilliams/daglib)

MODFLOW 6 compiler options: -Imac/obj_mf6 -O2 -no-heap-arrays -fpe0
-traceback -fpp -module mac/mod_mf6/ -c -o mac/obj_mf6/compilerversion.o

System command used to initiate simulation:
/Users/mnfienen/.local/share/flopy/bin/mf6

MODFLOW was compiled using uniform precision.

Real Variables
  KIND: 8
  TINY (smallest non-zero value):    2.225074-308
  HUGE (largest value):    1.797693+308
  PRECISION: 15
  SIZE IN BITS: 64

Integer Variables
  KIND: 4
  HUGE (largest value): 2147483647
  SIZE IN BITS: 32

Long Integer Variables
  KIND: 8
  HUGE (largest value): 9223372036854775807
  SIZE IN BITS: 64

Logical Variables
  KIND: 4
  SIZE IN BITS: 32
 
 NAMEFILE OPTIONS:
 END NAMEFILE OPTIONS:

 DIS -- STRUCTURED GRID DISCRETIZATION PACKAGE, VERSION 2 : 3/27/2014 - INPUT READ FROM MEMPATH: __INPUT__/PS2/DIS                                 


 NPF -- NODE PROPERTY FLOW PACKAGE, VERSION 1, 3/30/2015 INPUT READ FROM MEMPATH: __INPUT__/PS2/NPF                                 

 Setting Discretization Options
    Model length unit [0=UND, 1=FEET, 2=METERS, 3=CENTIMETERS] set as 1
    XORIGIN = .000000000000000
    YORIGIN = .000000000000000
    ANGROT = .000000000000000
 End Setting Discretization Options

 Setting Discretization Dimensions
    NLAY = 3
    NROW = 21
    NCOL = 20
 End Setting Discretization Dimensions

 Setting Discretization Griddata
    DELR set from input file
    DELC set from input file
    TOP set from input file
    BOTM set from input file
    IDOMAIN set from input file
 End Setting Discretization Griddata

 Setting NPF Options
    Cell-by-cell flow information will be saved to binary file whenever ICBCFL is not zero.
 End Setting NPF Options

 Setting NPF Griddata
    ICELLTYPE set from input file
    K set from input file
    K33 set from input file
    K22 not provided.  Setting K22 = K.
 End Setting NPF Griddata


 RIV   -- RIV PACKAGE, VERSION 8, 2/22/2014 INPUT READ FROM UNIT 1007
 # File generated by Flopy version 3.4.2 on 09/12/2023 at 13:54:47.

 PROCESSING RIV OPTIONS
    FLOWS WILL BE SAVED TO BUDGET FILE SPECIFIED IN OUTPUT CONTROL
 END OF RIV OPTIONS

 PROCESSING RIV DIMENSIONS
    MAXBOUND =      21
 END OF RIV DIMENSIONS

 GHB   -- GHB PACKAGE, VERSION 8, 2/22/2014 INPUT READ FROM UNIT 1008
 # File generated by Flopy version 3.4.2 on 09/12/2023 at 13:54:47.

 PROCESSING GHB OPTIONS
    GHB FLOWS WILL BE PRINTED TO LISTING FILE.
 END OF GHB OPTIONS

 PROCESSING GHB DIMENSIONS
    MAXBOUND =      11
 END OF GHB DIMENSIONS

 RCH   -- RCH PACKAGE, VERSION 8, 2/22/2014 INPUT READ FROM UNIT 1009
 # File generated by Flopy version 3.4.2 on 09/12/2023 at 13:54:47.

 PROCESSING RCH OPTIONS
    RECHARGE INPUT WILL BE READ AS ARRAY(S).
 END OF RCHA OPTIONS

 IC -- INITIAL CONDITIONS PACKAGE, VERSION 8, 3/28/2015 INPUT READ FROM UNIT 1005
 # File generated by Flopy version 3.4.2 on 09/12/2023 at 13:54:47.
 PROCESSING GRIDDATA

     INITIAL HEAD =   320.0000     FOR LAYER 1

     INITIAL HEAD =   320.0000     FOR LAYER 2

     INITIAL HEAD =   320.0000     FOR LAYER 3
 END PROCESSING GRIDDATA
    BINARY GRID INFORMATION WILL BE WRITTEN TO:
      UNIT NUMBER: 1013
      FILE NAME: ps2.dis.grb

 OPENED ps2.dis.grb
 FILE TYPE:DATA(BINARY)   UNIT 1013   STATUS:REPLACE             
 FORMAT:UNFORMATTED            ACCESS:STREAM              
 ACTION:READWRITE           

      THE LAST TIME STEP WILL BE PRINTED
      THE LAST TIME STEP WILL BE PRINTED
 # File generated by Flopy version 3.4.2 on 09/12/2023 at 13:54:47.

 PROCESSING OC OPTIONS

    HEAD INFORMATION WILL BE WRITTEN TO:
      UNIT NUMBER: 1014
      FILE NAME: ps2.hed

 OPENED ps2.hed
 FILE TYPE:DATA(BINARY)   UNIT 1014   STATUS:REPLACE             
 FORMAT:UNFORMATTED            ACCESS:STREAM              
 ACTION:READWRITE           

 END OF OC OPTIONS

start timestep kper="1" kstp="1" mode="normal"


 BEGIN READING OUTPUT CONTROL FOR STRESS PERIOD 1
      ALL TIME STEPS WILL BE SAVED
      ALL TIME STEPS WILL BE PRINTED
      ALL TIME STEPS WILL BE PRINTED

 END READING OUTPUT CONTROL FOR STRESS PERIOD 1

                 RECHARGE =  0.5000000E-02

 GHB PACKAGE (GHB_0) FLOW RATES   PERIOD      1   STEP        1
 -----------------------------------------------
   NUMBER   CELLID                    RATE      
 -----------------------------------------------
     1      (1,15,10)            -68675.253     
     2      (1,15,11)            -35591.673     
     3      (1,15,12)            -28896.386     
     4      (1,15,13)            -25147.721     
     5      (1,15,14)            -22171.146     
     6      (1,15,15)            -19299.942     
     7      (1,15,16)            -16094.760     
     8      (1,15,17)            -12057.168     
     9      (1,15,18)            -6183.7474     
     10     (1,15,19)             7323.4509     
     11     (1,15,20)             126185.33     
 -----------------------------------------------



1
  HEAD IN LAYER   1 AT END OF TIME STEP   1 IN STRESS PERIOD    1
  ---------------------------------------------------------------------------

            1        2        3        4        5        6        7        8        9       10       11       12       13       14       15       16       17       18       19       20
 .......................................................................................................................................................................................
   1   338.093  338.035  337.920  337.745  337.511  337.214  336.852  336.421  335.914  335.325  334.642  333.852  332.938  331.876  330.637  329.188  327.481  325.461  323.056  320.172
   2   338.069  338.011  337.894  337.718  337.481  337.182  336.817  336.383  335.875  335.284  334.601  333.812  332.898  331.839  330.605  329.160  327.459  325.446  323.048  320.171
   3   338.022  337.962  337.843  337.663  337.421  337.117  336.747  336.308  335.795  335.201  334.516  333.728  332.818  331.764  330.537  329.102  327.413  325.413  323.031  320.170
   4   337.951  337.889  337.766  337.580  337.331  337.018  336.639  336.192  335.671  335.072  334.385  333.597  332.692  331.646  330.432  329.012  327.342  325.363  323.004  320.169
   5   337.857  337.793  337.663  337.469  337.210  336.884  336.492  336.031  335.499  334.892  334.200  333.413  332.514  331.480  330.283  328.886  327.242  325.293  322.966  320.167
   6   337.743  337.674  337.537  337.331  337.056  336.713  336.302  335.822  335.273  334.652  333.953  333.166  332.275  331.258  330.084  328.717  327.108  325.199  322.916  320.165
   7   337.609  337.535  337.388  337.166  336.871  336.503  336.065  335.557  334.982  334.341  333.631  332.843  331.962  330.966  329.823  328.496  326.934  325.078  322.852  320.161
   8   337.459  337.379  337.217  336.976  336.654  336.253  335.776  335.228  334.616  333.944  333.215  332.425  331.557  330.589  329.488  328.212  326.712  324.923  322.770  320.157
   9   337.296  337.208  337.030  336.763  336.407  335.962  335.432  334.827  334.158  333.439  332.682  331.886  331.036  330.105  329.059  327.853  326.431  324.730  322.669  320.152
  10   337.127  337.029  336.832  336.534  336.134  335.631  335.030  334.342  333.587  332.796  331.995  331.190  330.365  329.486  328.514  327.399  326.081  324.491  322.545  320.146
  11   336.956  336.847  336.629  336.296  335.844  335.269  334.571  333.763  332.877  331.968  331.101  330.287  329.500  328.695  327.823  326.829  325.647  324.200  322.398  320.139
  12   336.791  336.672  336.431  336.060  335.551  334.890  334.068  333.089  331.992  330.881  329.918  329.105  328.382  327.684  326.949  326.116  325.114  323.857  322.235  320.131
  13   336.640  336.511  336.250  335.844  335.276  334.523  333.553  332.340  330.898  329.394  328.311  327.542  326.938  326.396  325.845  325.223  324.461  323.464  322.085  320.126
  14   336.509  336.374  336.096  335.663  335.049  334.215  333.099  331.602  329.606  327.174  326.060  325.472  325.084  324.765  324.451  324.099  323.657  323.037  322.046  320.171
  15   336.404  336.265  335.980  335.533  334.898  334.025  332.827  331.120  328.429  323.187  322.856  322.789  322.751  322.722  322.693  322.661  322.621  322.562  322.427  321.238
  16   336.326  336.188  335.904  335.462  334.837  333.990  332.860  331.351  329.342  326.901  325.785  325.204  324.829  324.530  324.243  323.923  323.519  322.941  321.995  320.168
  17   336.274  336.139  335.865  335.440  334.849  334.070  333.072  331.833  330.368  328.848  327.762  327.003  326.424  325.922  325.424  324.867  324.181  323.269  321.981  320.121
  18   336.243  336.114  335.852  335.452  334.905  334.202  333.336  332.315  331.182  330.047  329.077  328.278  327.593  326.954  326.300  325.566  324.680  323.553  322.074  320.123
  19   336.228  336.104  335.856  335.480  334.973  334.336  333.573  332.702  331.762  330.817  329.938  329.141  328.402  327.678  326.918  326.062  325.042  323.777  322.173  320.128
  20   336.221  336.102  335.864  335.507  335.031  334.440  333.745  332.965  332.131  331.284  330.461  329.674  328.910  328.137  327.312  326.380  325.277  323.928  322.246  320.132
  21   336.219  336.103  335.871  335.523  335.063  334.496  333.835  333.097  332.311  331.506  330.709  329.928  329.154  328.359  327.503  326.535  325.393  324.004  322.284  320.133
1
  HEAD IN LAYER   2 AT END OF TIME STEP   1 IN STRESS PERIOD    1
  ---------------------------------------------------------------------------

            1        2        3        4        5        6        7        8        9       10       11       12       13       14       15       16       17       18       19       20
 .......................................................................................................................................................................................
   1   334.991  334.955  334.884  334.775  334.631  334.449  334.229  333.969  333.666  333.319  332.922  332.469  331.953  331.363  330.687  329.908  329.007  327.956  326.723  325.266
   2   334.977  334.941  334.868  334.759  334.613  334.430  334.208  333.947  333.644  333.296  332.898  332.446  331.930  331.342  330.668  329.891  328.993  327.946  326.717  325.264
   3   334.948  334.911  334.837  334.726  334.578  334.392  334.168  333.903  333.598  333.248  332.850  332.398  331.884  331.298  330.628  329.857  328.964  327.924  326.703  325.258
   4   334.906  334.868  334.791  334.677  334.525  334.335  334.105  333.837  333.527  333.174  332.775  332.323  331.812  331.231  330.567  329.804  328.921  327.891  326.682  325.250
   5   334.849  334.810  334.731  334.612  334.454  334.257  334.021  333.745  333.429  333.072  332.670  332.219  331.711  331.136  330.481  329.730  328.860  327.846  326.654  325.240
   6   334.781  334.739  334.656  334.531  334.365  334.158  333.912  333.626  333.302  332.937  332.532  332.080  331.577  331.010  330.367  329.631  328.780  327.787  326.617  325.227
   7   334.701  334.657  334.568  334.435  334.258  334.039  333.778  333.477  333.139  332.765  332.353  331.901  331.403  330.847  330.221  329.505  328.678  327.712  326.571  325.212
   8   334.612  334.564  334.468  334.324  334.133  333.897  333.616  333.295  332.937  332.547  332.126  331.672  331.180  330.639  330.034  329.346  328.550  327.618  326.514  325.194
   9   334.515  334.463  334.358  334.201  333.992  333.733  333.425  333.074  332.687  332.273  331.837  331.381  330.898  330.376  329.800  329.147  328.392  327.504  326.447  325.176
  10   334.414  334.357  334.242  334.070  333.838  333.549  333.204  332.810  332.380  331.928  331.470  331.009  330.539  330.044  329.505  328.899  328.197  327.366  326.367  325.155
  11   334.313  334.250  334.124  333.933  333.675  333.348  332.954  332.499  332.001  331.490  330.998  330.533  330.082  329.625  329.137  328.593  327.960  327.202  326.276  325.135
  12   334.215  334.147  334.009  333.798  333.510  333.139  332.682  332.140  331.536  330.922  330.382  329.917  329.499  329.096  328.678  328.215  327.674  327.012  326.178  325.114
  13   334.124  334.051  333.903  333.674  333.356  332.938  332.405  331.745  330.967  330.156  329.555  329.111  328.753  328.429  328.104  327.749  327.329  326.799  326.086  325.096
  14   334.045  333.969  333.812  333.569  333.227  332.768  332.161  331.358  330.302  329.026  328.408  328.056  327.806  327.594  327.389  327.169  326.910  326.570  326.052  325.104
  15   333.981  333.902  333.741  333.491  333.139  332.660  332.011  331.103  329.698  327.021  326.793  326.700  326.626  326.559  326.496  326.437  326.379  326.319  326.229  325.624
  16   333.931  333.853  333.693  333.445  333.097  332.631  332.017  331.207  330.144  328.863  328.245  327.896  327.653  327.451  327.260  327.057  326.818  326.499  326.004  325.081
  17   333.896  333.820  333.664  333.425  333.095  332.663  332.115  331.441  330.650  329.831  329.228  328.790  328.445  328.142  327.845  327.523  327.142  326.656  325.990  325.049
  18   333.874  333.800  333.651  333.425  333.117  332.723  332.242  331.678  331.054  330.428  329.884  329.426  329.028  328.656  328.280  327.869  327.388  326.793  326.031  325.045
  19   333.861  333.790  333.648  333.434  333.146  332.786  332.357  331.869  331.343  330.812  330.314  329.857  329.432  329.017  328.588  328.115  327.566  326.902  326.077  325.043
  20   333.854  333.786  333.649  333.444  333.172  332.836  332.441  331.999  331.527  331.045  330.575  330.124  329.686  329.247  328.784  328.273  327.683  326.976  326.112  325.043
  21   333.851  333.784  333.651  333.451  333.187  332.863  332.485  332.065  331.616  331.157  330.700  330.252  329.809  329.358  328.880  328.351  327.740  327.013  326.129  325.043
1
  HEAD IN LAYER   3 AT END OF TIME STEP   1 IN STRESS PERIOD    1
  ---------------------------------------------------------------------------

            1        2        3        4        5        6        7        8        9       10       11       12       13       14       15       16       17       18       19       20
 .......................................................................................................................................................................................
   1   331.902  331.888  331.859  331.817  331.762  331.695  331.616  331.526  331.428  331.321  331.209  331.091  330.972  330.853  330.736  330.626  330.526  330.441  330.377  330.340
   2   331.897  331.883  331.854  331.812  331.757  331.689  331.610  331.521  331.422  331.315  331.202  331.085  330.966  330.847  330.730  330.620  330.521  330.436  330.371  330.335
   3   331.887  331.873  331.844  331.802  331.746  331.678  331.599  331.509  331.410  331.303  331.190  331.073  330.954  330.835  330.719  330.609  330.510  330.425  330.361  330.325
   4   331.872  331.858  331.829  331.786  331.730  331.662  331.582  331.491  331.391  331.284  331.171  331.054  330.935  330.817  330.701  330.592  330.494  330.410  330.346  330.310
   5   331.854  331.839  331.810  331.766  331.710  331.640  331.559  331.468  331.368  331.260  331.147  331.030  330.911  330.793  330.678  330.570  330.472  330.389  330.327  330.291
   6   331.831  331.816  331.786  331.742  331.684  331.614  331.532  331.440  331.338  331.230  331.116  330.999  330.881  330.764  330.650  330.543  330.446  330.364  330.303  330.268
   7   331.805  331.789  331.759  331.714  331.655  331.584  331.500  331.406  331.304  331.195  331.081  330.964  330.846  330.729  330.617  330.511  330.416  330.335  330.275  330.240
   8   331.776  331.760  331.729  331.683  331.623  331.550  331.464  331.369  331.265  331.155  331.040  330.923  330.805  330.690  330.579  330.475  330.382  330.303  330.244  330.210
   9   331.745  331.729  331.697  331.650  331.588  331.513  331.426  331.328  331.223  331.111  330.995  330.878  330.761  330.647  330.537  330.435  330.344  330.268  330.210  330.178
  10   331.713  331.696  331.664  331.615  331.551  331.474  331.385  331.285  331.177  331.063  330.947  330.829  330.713  330.600  330.493  330.393  330.305  330.231  330.175  330.144
  11   331.681  331.664  331.630  331.580  331.514  331.435  331.343  331.240  331.130  331.014  330.896  330.778  330.662  330.551  330.446  330.350  330.264  330.193  330.139  330.109
  12   331.649  331.632  331.597  331.546  331.478  331.396  331.301  331.196  331.082  330.963  330.844  330.726  330.611  330.502  330.399  330.306  330.224  330.155  330.104  330.076
  13   331.619  331.601  331.566  331.513  331.444  331.360  331.262  331.153  331.036  330.914  330.793  330.675  330.562  330.454  330.355  330.264  330.185  330.120  330.071  330.044
  14   331.591  331.573  331.537  331.483  331.413  331.327  331.227  331.116  330.995  330.870  330.747  330.629  330.517  330.412  330.314  330.227  330.151  330.088  330.042  330.016
  15   331.567  331.548  331.512  331.457  331.386  331.300  331.198  331.085  330.962  330.834  330.712  330.594  330.483  330.379  330.283  330.197  330.122  330.062  330.018  329.993
  16   331.545  331.527  331.490  331.436  331.365  331.278  331.177  331.064  330.943  330.817  330.695  330.577  330.465  330.361  330.265  330.178  330.104  330.043  329.998  329.972
  17   331.528  331.509  331.473  331.418  331.348  331.261  331.162  331.051  330.932  330.810  330.688  330.570  330.458  330.353  330.256  330.168  330.092  330.029  329.983  329.957
  18   331.514  331.495  331.459  331.405  331.335  331.250  331.152  331.043  330.927  330.807  330.687  330.570  330.457  330.350  330.252  330.163  330.085  330.020  329.972  329.946
  19   331.503  331.485  331.449  331.396  331.326  331.242  331.146  331.039  330.925  330.807  330.688  330.571  330.458  330.351  330.251  330.160  330.081  330.015  329.966  329.938
  20   331.496  331.478  331.442  331.390  331.321  331.238  331.143  331.037  330.925  330.808  330.690  330.573  330.460  330.352  330.251  330.159  330.079  330.012  329.962  329.934
  21   331.493  331.475  331.439  331.387  331.318  331.236  331.141  331.036  330.925  330.809  330.691  330.574  330.461  330.353  330.251  330.159  330.078  330.010  329.960  329.932

 HEAD WILL BE SAVED ON UNIT 1014 AT END OF TIME STEP    1, STRESS PERIOD    1


  VOLUME BUDGET FOR ENTIRE MODEL AT END OF TIME STEP    1, STRESS PERIOD   1
  ---------------------------------------------------------------------------------------------------

     CUMULATIVE VOLUME      L**3       RATES FOR THIS TIME STEP      L**3/T          PACKAGE NAME    
     ------------------                 ------------------------                     ----------------

           IN:                                      IN:
           ---                                      ---
                 RIV =           0.0000                   RIV =           0.0000     RIV_0                            
                 GHB =      133508.7847                   GHB =      133508.7847     GHB_0                            
                RCHA =      525000.0000                  RCHA =      525000.0000     RCHA_0                           

            TOTAL IN =      658508.7847              TOTAL IN =      658508.7847

          OUT:                                     OUT:
          ----                                     ----
                 RIV =      424391.1577                   RIV =      424391.1577     RIV_0                            
                 GHB =      234117.7973                   GHB =      234117.7973     GHB_0                            
                RCHA =           0.0000                  RCHA =           0.0000     RCHA_0                           

           TOTAL OUT =      658508.9549             TOTAL OUT =      658508.9549

            IN - OUT =          -0.1702              IN - OUT =          -0.1702

 PERCENT DISCREPANCY =          -0.00     PERCENT DISCREPANCY =          -0.00




         TIME SUMMARY AT END OF TIME STEP    1 IN STRESS PERIOD    1
                    SECONDS     MINUTES      HOURS       DAYS        YEARS
                    -----------------------------------------------------------
   TIME STEP LENGTH  86400.      1440.0      24.000      1.0000     2.73785E-03
 STRESS PERIOD TIME  86400.      1440.0      24.000      1.0000     2.73785E-03
         TOTAL TIME  86400.      1440.0      24.000      1.0000     2.73785E-03


end timestep

