                                   MODFLOW 6
                U.S. GEOLOGICAL SURVEY MODULAR HYDROLOGIC MODEL
                          GROUNDWATER FLOW MODEL (GWF)
                            VERSION 6.4.2 06/28/2023

   MODFLOW 6 compiled Jul 05 2023 20:29:14 with Intel(R) Fortran Intel(R) 64
   Compiler Classic for applications running on Intel(R) 64, Version 2021.7.0
                             Build 20220726_000000

This software has been approved for release by the U.S. Geological 
Survey (USGS). Although the software has been subjected to rigorous 
review, the USGS reserves the right to update the software as needed 
pursuant to further analysis and review. No warranty, expressed or 
implied, is made by the USGS or the U.S. Government as to the 
functionality of the software and related material nor shall the 
fact of release constitute any such warranty. Furthermore, the 
software is released on condition that neither the USGS nor the U.S. 
Government shall be held liable for any damages resulting from its 
authorized or unauthorized use. Also refer to the USGS Water 
Resources Software User Rights Notice for complete use, copyright, 
and distribution information.


As a work of the United States Government, this USGS product is 
in the public domain within the United States. You can copy, 
modify, distribute, and perform the work, even for commercial 
purposes, all without asking permission. Additionally, USGS 
waives copyright and related rights in the work worldwide 
through CC0 1.0 Universal Public Domain Dedication 
(https://creativecommons.org/publicdomain/zero/1.0/).

The following GNU Lesser General Public License (LGPL) libraries
are used in this USGS product:

    SPARSKIT version 2.0
      ilut, luson, and qsplit 
      (https://www-users.cse.umn.edu/~saad/software/SPARSKIT/)

    RCM - Reverse Cuthill McKee Ordering
      (https://people.math.sc.edu/Burkardt/f_src/rcm/rcm.html)

    BLAS - Basic Linear Algebra Subprograms Level 1
      (https://people.math.sc.edu/Burkardt/f_src/blas1_d/blas1_d.html)

    SPARSEKIT - Sparse Matrix Utility Package
      amux, dperm, dvperm, rperm, and cperm
      (https://people.sc.fsu.edu/~jburkardt/f77_src/sparsekit/sparsekit.html)

The following BSD-3 License libraries are used in this USGS product:

    Modern Fortran DAG Library
      Copyright (c) 2018, Jacob Williams
      All rights reserved.
      (https://github.com/jacobwilliams/daglib)

MODFLOW 6 compiler options: -Imac/obj_mf6 -O2 -no-heap-arrays -fpe0
-traceback -fpp -module mac/mod_mf6/ -c -o mac/obj_mf6/compilerversion.o

System command used to initiate simulation:
/Users/mnfienen/.local/share/flopy/bin/mf6

MODFLOW was compiled using uniform precision.

Real Variables
  KIND: 8
  TINY (smallest non-zero value):    2.225074-308
  HUGE (largest value):    1.797693+308
  PRECISION: 15
  SIZE IN BITS: 64

Integer Variables
  KIND: 4
  HUGE (largest value): 2147483647
  SIZE IN BITS: 32

Long Integer Variables
  KIND: 8
  HUGE (largest value): 9223372036854775807
  SIZE IN BITS: 64

Logical Variables
  KIND: 4
  SIZE IN BITS: 32
 
 NAMEFILE OPTIONS:
 END NAMEFILE OPTIONS:

 DIS -- STRUCTURED GRID DISCRETIZATION PACKAGE, VERSION 2 : 3/27/2014 - INPUT READ FROM MEMPATH: __INPUT__/PS2/DIS                                 


 NPF -- NODE PROPERTY FLOW PACKAGE, VERSION 1, 3/30/2015 INPUT READ FROM MEMPATH: __INPUT__/PS2/NPF                                 

 Setting Discretization Options
    Model length unit [0=UND, 1=FEET, 2=METERS, 3=CENTIMETERS] set as 1
    XORIGIN = .000000000000000
    YORIGIN = .000000000000000
    ANGROT = .000000000000000
 End Setting Discretization Options

 Setting Discretization Dimensions
    NLAY = 3
    NROW = 21
    NCOL = 20
 End Setting Discretization Dimensions

 Setting Discretization Griddata
    DELR set from input file
    DELC set from input file
    TOP set from input file
    BOTM set from input file
    IDOMAIN set from input file
 End Setting Discretization Griddata

 Setting NPF Options
    Cell-by-cell flow information will be saved to binary file whenever ICBCFL is not zero.
 End Setting NPF Options

 Setting NPF Griddata
    ICELLTYPE set from input file
    K set from input file
    K33 set from input file
    K22 not provided.  Setting K22 = K.
 End Setting NPF Griddata


 CHD   -- CHD PACKAGE, VERSION 8, 2/22/2014 INPUT READ FROM UNIT 1007
 # File generated by Flopy version 3.4.2 on 09/12/2023 at 13:50:27.

 PROCESSING CHD OPTIONS
    LISTS OF CHD CELLS WILL BE PRINTED.
    CHD FLOWS WILL BE PRINTED TO LISTING FILE.
    FLOWS WILL BE SAVED TO BUDGET FILE SPECIFIED IN OUTPUT CONTROL
 END OF CHD OPTIONS

 PROCESSING CHD DIMENSIONS
    MAXBOUND =      42
 END OF CHD DIMENSIONS

 IC -- INITIAL CONDITIONS PACKAGE, VERSION 8, 3/28/2015 INPUT READ FROM UNIT 1005
 # File generated by Flopy version 3.4.2 on 09/12/2023 at 13:50:27.
 PROCESSING GRIDDATA

     INITIAL HEAD =   320.0000     FOR LAYER 1

     INITIAL HEAD =   320.0000     FOR LAYER 2

     INITIAL HEAD =   320.0000     FOR LAYER 3
 END PROCESSING GRIDDATA
    BINARY GRID INFORMATION WILL BE WRITTEN TO:
      UNIT NUMBER: 1011
      FILE NAME: ps2.dis.grb

 OPENED ps2.dis.grb
 FILE TYPE:DATA(BINARY)   UNIT 1011   STATUS:REPLACE             
 FORMAT:UNFORMATTED            ACCESS:STREAM              
 ACTION:READWRITE           

      THE LAST TIME STEP WILL BE PRINTED
      THE LAST TIME STEP WILL BE PRINTED
 # File generated by Flopy version 3.4.2 on 09/12/2023 at 13:50:27.

 PROCESSING OC OPTIONS

    HEAD INFORMATION WILL BE WRITTEN TO:
      UNIT NUMBER: 1012
      FILE NAME: ps2.hed

 OPENED ps2.hed
 FILE TYPE:DATA(BINARY)   UNIT 1012   STATUS:REPLACE             
 FORMAT:UNFORMATTED            ACCESS:STREAM              
 ACTION:READWRITE           

 END OF OC OPTIONS

start timestep kper="1" kstp="1" mode="normal"


 BEGIN READING OUTPUT CONTROL FOR STRESS PERIOD 1
      ALL TIME STEPS WILL BE SAVED
      ALL TIME STEPS WILL BE PRINTED
      ALL TIME STEPS WILL BE PRINTED

 END READING OUTPUT CONTROL FOR STRESS PERIOD 1
 ---------------------------------------------------
  CHD NO.    LAYER    ROW     COL         HEAD      
 ---------------------------------------------------
     1         1       1       1     330.000000     
     2         1       2       1     330.000000     
     3         1       3       1     330.000000     
     4         1       4       1     330.000000     
     5         1       5       1     330.000000     
     6         1       6       1     330.000000     
     7         1       7       1     330.000000     
     8         1       8       1     330.000000     
     9         1       9       1     330.000000     
     10        1      10       1     330.000000     
     11        1      11       1     330.000000     
     12        1      12       1     330.000000     
     13        1      13       1     330.000000     
     14        1      14       1     330.000000     
     15        1      15       1     330.000000     
     16        1      16       1     330.000000     
     17        1      17       1     330.000000     
     18        1      18       1     330.000000     
     19        1      19       1     330.000000     
     20        1      20       1     330.000000     
     21        1      21       1     330.000000     
     22        1       1      20     320.000000     
     23        1       2      20     320.000000     
     24        1       3      20     320.000000     
     25        1       4      20     320.000000     
     26        1       5      20     320.000000     
     27        1       6      20     320.000000     
     28        1       7      20     320.000000     
     29        1       8      20     320.000000     
     30        1       9      20     320.000000     
     31        1      10      20     320.000000     
     32        1      11      20     320.000000     
     33        1      12      20     320.000000     
     34        1      13      20     320.000000     
     35        1      14      20     320.000000     
     36        1      15      20     320.000000     
     37        1      16      20     320.000000     
     38        1      17      20     320.000000     
     39        1      18      20     320.000000     
     40        1      19      20     320.000000     
     41        1      20      20     320.000000     
     42        1      21      20     320.000000     
 ---------------------------------------------------



 CHD PACKAGE (CHD-1) FLOW RATES   PERIOD      1   STEP        1
 -----------------------------------------------
   NUMBER   CELLID                    RATE      
 -----------------------------------------------
     1      (1,1,1)               4616.7714     
     2      (1,2,1)               4616.7587     
     3      (1,3,1)               4616.7632     
     4      (1,4,1)               4616.7624     
     5      (1,5,1)               4616.7614     
     6      (1,6,1)               4616.7607     
     7      (1,7,1)               4616.7600     
     8      (1,8,1)               4616.7598     
     9      (1,9,1)               4616.7595     
     10     (1,10,1)              4616.7590     
     11     (1,11,1)              4616.7586     
     12     (1,12,1)              4616.7586     
     13     (1,13,1)              4616.7586     
     14     (1,14,1)              4616.7588     
     15     (1,15,1)              4616.7591     
     16     (1,16,1)              4616.7592     
     17     (1,17,1)              4616.7586     
     18     (1,18,1)              4616.7570     
     19     (1,19,1)              4616.7542     
     20     (1,20,1)              4616.7502     
     21     (1,21,1)              4616.7476     
     22     (1,1,20)             -4616.5478     
     23     (1,2,20)             -4616.5611     
     24     (1,3,20)             -4616.5663     
     25     (1,4,20)             -4616.5675     
     26     (1,5,20)             -4616.5681     
     27     (1,6,20)             -4616.5685     
     28     (1,7,20)             -4616.5685     
     29     (1,8,20)             -4616.5685     
     30     (1,9,20)             -4616.5690     
     31     (1,10,20)            -4616.5698     
     32     (1,11,20)            -4616.5704     
     33     (1,12,20)            -4616.5709     
     34     (1,13,20)            -4616.5720     
     35     (1,14,20)            -4616.5740     
     36     (1,15,20)            -4616.5759     
     37     (1,16,20)            -4616.5783     
     38     (1,17,20)            -4616.5803     
     39     (1,18,20)            -4616.5811     
     40     (1,19,20)            -4616.5815     
     41     (1,20,20)            -4616.5872     
     42     (1,21,20)            -4616.5990     
 -----------------------------------------------



1
  HEAD IN LAYER   1 AT END OF TIME STEP   1 IN STRESS PERIOD    1
  ---------------------------------------------------------------------------

            1        2        3        4        5        6        7        8        9       10       11       12       13       14       15       16       17       18       19       20
 .......................................................................................................................................................................................
   1   330.000  329.259  328.600  328.008  327.473  326.983  326.529  326.102  325.694  325.297  324.903  324.504  324.092  323.659  323.195  322.690  322.133  321.510  320.805  320.000
   2   330.000  329.259  328.600  328.008  327.473  326.983  326.529  326.102  325.694  325.297  324.903  324.504  324.092  323.659  323.195  322.690  322.133  321.510  320.805  320.000
   3   330.000  329.259  328.600  328.008  327.473  326.983  326.529  326.102  325.694  325.297  324.903  324.504  324.092  323.659  323.195  322.690  322.133  321.510  320.805  320.000
   4   330.000  329.259  328.600  328.008  327.473  326.983  326.529  326.102  325.694  325.297  324.903  324.504  324.092  323.659  323.195  322.690  322.133  321.510  320.805  320.000
   5   330.000  329.259  328.600  328.008  327.473  326.983  326.529  326.102  325.694  325.297  324.903  324.504  324.092  323.659  323.195  322.690  322.133  321.510  320.805  320.000
   6   330.000  329.259  328.600  328.008  327.473  326.983  326.529  326.102  325.694  325.297  324.903  324.504  324.092  323.659  323.195  322.690  322.133  321.510  320.805  320.000
   7   330.000  329.259  328.600  328.008  327.473  326.983  326.529  326.102  325.694  325.297  324.903  324.504  324.092  323.659  323.195  322.690  322.133  321.510  320.805  320.000
   8   330.000  329.259  328.600  328.008  327.473  326.983  326.529  326.102  325.694  325.297  324.903  324.504  324.092  323.659  323.195  322.690  322.133  321.510  320.805  320.000
   9   330.000  329.259  328.600  328.008  327.473  326.983  326.529  326.102  325.694  325.297  324.903  324.504  324.092  323.659  323.195  322.690  322.133  321.510  320.805  320.000
  10   330.000  329.259  328.600  328.008  327.473  326.983  326.529  326.102  325.694  325.297  324.903  324.504  324.092  323.659  323.195  322.690  322.133  321.510  320.805  320.000
  11   330.000  329.259  328.600  328.008  327.473  326.983  326.529  326.102  325.694  325.297  324.903  324.504  324.092  323.659  323.195  322.690  322.133  321.510  320.805  320.000
  12   330.000  329.259  328.600  328.008  327.473  326.983  326.529  326.102  325.694  325.297  324.903  324.504  324.092  323.659  323.195  322.690  322.133  321.510  320.805  320.000
  13   330.000  329.259  328.600  328.008  327.473  326.983  326.529  326.102  325.694  325.297  324.903  324.504  324.092  323.659  323.195  322.690  322.133  321.510  320.805  320.000
  14   330.000  329.259  328.600  328.008  327.473  326.983  326.529  326.102  325.694  325.297  324.903  324.504  324.092  323.659  323.195  322.690  322.133  321.510  320.805  320.000
  15   330.000  329.259  328.600  328.008  327.473  326.983  326.529  326.102  325.694  325.297  324.903  324.504  324.092  323.659  323.195  322.690  322.133  321.510  320.805  320.000
  16   330.000  329.259  328.600  328.008  327.473  326.983  326.529  326.102  325.694  325.297  324.903  324.504  324.092  323.659  323.195  322.690  322.133  321.510  320.805  320.000
  17   330.000  329.259  328.600  328.008  327.473  326.983  326.529  326.102  325.694  325.297  324.903  324.504  324.092  323.659  323.195  322.690  322.133  321.510  320.805  320.000
  18   330.000  329.259  328.600  328.008  327.473  326.983  326.529  326.102  325.694  325.297  324.903  324.504  324.092  323.659  323.195  322.690  322.133  321.510  320.805  320.000
  19   330.000  329.259  328.600  328.008  327.473  326.983  326.529  326.102  325.694  325.297  324.903  324.504  324.092  323.659  323.195  322.690  322.133  321.510  320.805  320.000
  20   330.000  329.259  328.600  328.008  327.473  326.983  326.529  326.102  325.694  325.297  324.903  324.504  324.092  323.659  323.195  322.690  322.133  321.510  320.805  320.000
  21   330.000  329.259  328.600  328.008  327.473  326.983  326.529  326.102  325.694  325.297  324.903  324.504  324.092  323.659  323.195  322.690  322.133  321.510  320.805  320.000
1
  HEAD IN LAYER   2 AT END OF TIME STEP   1 IN STRESS PERIOD    1
  ---------------------------------------------------------------------------

            1        2        3        4        5        6        7        8        9       10       11       12       13       14       15       16       17       18       19       20
 .......................................................................................................................................................................................
   1   327.751  327.374  327.032  326.719  326.431  326.161  325.907  325.665  325.430  325.201  324.972  324.741  324.505  324.259  324.000  323.723  323.423  323.094  322.729  322.320
   2   327.751  327.374  327.032  326.719  326.431  326.161  325.907  325.665  325.430  325.201  324.972  324.741  324.505  324.259  324.000  323.723  323.423  323.094  322.729  322.320
   3   327.751  327.374  327.032  326.719  326.431  326.161  325.907  325.665  325.430  325.201  324.972  324.741  324.505  324.259  324.000  323.723  323.423  323.094  322.729  322.320
   4   327.751  327.374  327.032  326.719  326.431  326.161  325.907  325.665  325.430  325.201  324.972  324.741  324.505  324.259  324.000  323.723  323.423  323.094  322.729  322.320
   5   327.751  327.374  327.032  326.719  326.431  326.161  325.907  325.665  325.430  325.201  324.972  324.741  324.505  324.259  324.000  323.723  323.423  323.094  322.729  322.320
   6   327.751  327.374  327.032  326.719  326.431  326.161  325.907  325.665  325.430  325.201  324.972  324.741  324.505  324.259  324.000  323.723  323.423  323.094  322.729  322.320
   7   327.751  327.374  327.032  326.719  326.431  326.161  325.907  325.665  325.430  325.201  324.972  324.741  324.505  324.259  324.000  323.723  323.423  323.094  322.729  322.320
   8   327.751  327.374  327.032  326.719  326.431  326.161  325.907  325.665  325.430  325.201  324.972  324.741  324.505  324.259  324.000  323.723  323.423  323.094  322.729  322.320
   9   327.751  327.374  327.032  326.719  326.431  326.161  325.907  325.665  325.430  325.201  324.972  324.741  324.505  324.259  324.000  323.723  323.423  323.094  322.729  322.320
  10   327.751  327.374  327.032  326.719  326.431  326.161  325.907  325.665  325.430  325.201  324.972  324.741  324.505  324.259  324.000  323.723  323.423  323.094  322.729  322.320
  11   327.751  327.374  327.032  326.719  326.431  326.161  325.907  325.665  325.430  325.201  324.972  324.741  324.505  324.259  324.000  323.723  323.423  323.094  322.729  322.320
  12   327.751  327.374  327.032  326.719  326.431  326.161  325.907  325.665  325.430  325.201  324.972  324.741  324.505  324.259  324.000  323.723  323.423  323.094  322.729  322.320
  13   327.751  327.374  327.032  326.719  326.431  326.161  325.907  325.665  325.430  325.201  324.972  324.741  324.505  324.259  324.000  323.723  323.423  323.094  322.729  322.320
  14   327.751  327.374  327.032  326.719  326.431  326.161  325.907  325.665  325.430  325.201  324.972  324.741  324.505  324.259  324.000  323.723  323.423  323.094  322.729  322.320
  15   327.751  327.374  327.032  326.719  326.431  326.161  325.907  325.665  325.430  325.201  324.972  324.741  324.505  324.259  324.000  323.723  323.423  323.094  322.729  322.320
  16   327.751  327.374  327.032  326.719  326.431  326.161  325.907  325.665  325.430  325.201  324.972  324.741  324.505  324.259  324.000  323.723  323.423  323.094  322.729  322.320
  17   327.751  327.374  327.032  326.719  326.431  326.161  325.907  325.665  325.430  325.201  324.972  324.741  324.505  324.259  324.000  323.723  323.423  323.094  322.729  322.320
  18   327.751  327.374  327.032  326.719  326.431  326.161  325.907  325.665  325.430  325.201  324.972  324.741  324.505  324.259  324.000  323.723  323.423  323.094  322.729  322.320
  19   327.751  327.374  327.032  326.719  326.431  326.161  325.907  325.665  325.430  325.201  324.972  324.741  324.505  324.259  324.000  323.723  323.423  323.094  322.729  322.320
  20   327.751  327.374  327.032  326.719  326.431  326.161  325.907  325.665  325.430  325.201  324.972  324.741  324.505  324.259  324.000  323.723  323.423  323.094  322.729  322.320
  21   327.751  327.374  327.032  326.719  326.431  326.161  325.907  325.665  325.430  325.201  324.972  324.741  324.505  324.259  324.000  323.723  323.423  323.094  322.729  322.320
1
  HEAD IN LAYER   3 AT END OF TIME STEP   1 IN STRESS PERIOD    1
  ---------------------------------------------------------------------------

            1        2        3        4        5        6        7        8        9       10       11       12       13       14       15       16       17       18       19       20
 .......................................................................................................................................................................................
   1   325.511  325.497  325.471  325.436  325.392  325.343  325.288  325.229  325.168  325.105  325.041  324.978  324.916  324.857  324.801  324.751  324.707  324.671  324.645  324.630
   2   325.511  325.497  325.471  325.436  325.392  325.343  325.288  325.229  325.168  325.105  325.041  324.978  324.916  324.857  324.801  324.751  324.707  324.671  324.645  324.630
   3   325.511  325.497  325.471  325.436  325.392  325.343  325.288  325.229  325.168  325.105  325.041  324.978  324.916  324.857  324.801  324.751  324.707  324.671  324.645  324.630
   4   325.511  325.497  325.471  325.436  325.392  325.343  325.288  325.229  325.168  325.105  325.041  324.978  324.916  324.857  324.801  324.751  324.707  324.671  324.645  324.630
   5   325.511  325.497  325.471  325.436  325.392  325.343  325.288  325.229  325.168  325.105  325.041  324.978  324.916  324.857  324.801  324.751  324.707  324.671  324.645  324.630
   6   325.511  325.497  325.471  325.436  325.392  325.343  325.288  325.229  325.168  325.105  325.041  324.978  324.916  324.857  324.801  324.751  324.707  324.671  324.645  324.630
   7   325.511  325.497  325.471  325.436  325.392  325.343  325.288  325.229  325.168  325.105  325.041  324.978  324.916  324.857  324.801  324.751  324.707  324.671  324.645  324.630
   8   325.511  325.497  325.471  325.436  325.392  325.343  325.288  325.229  325.168  325.105  325.041  324.978  324.916  324.857  324.801  324.751  324.707  324.671  324.645  324.630
   9   325.511  325.497  325.471  325.436  325.392  325.343  325.288  325.229  325.168  325.105  325.041  324.978  324.916  324.857  324.801  324.751  324.707  324.671  324.645  324.630
  10   325.511  325.497  325.471  325.436  325.392  325.343  325.288  325.229  325.168  325.105  325.041  324.978  324.916  324.857  324.801  324.751  324.707  324.671  324.645  324.630
  11   325.511  325.497  325.471  325.436  325.392  325.343  325.288  325.229  325.168  325.105  325.041  324.978  324.916  324.857  324.801  324.751  324.707  324.671  324.645  324.630
  12   325.511  325.497  325.471  325.436  325.392  325.343  325.288  325.229  325.168  325.105  325.041  324.978  324.916  324.857  324.801  324.751  324.707  324.671  324.645  324.630
  13   325.511  325.497  325.471  325.436  325.392  325.343  325.288  325.229  325.168  325.105  325.041  324.978  324.916  324.857  324.801  324.751  324.707  324.671  324.645  324.630
  14   325.511  325.497  325.471  325.436  325.392  325.343  325.288  325.229  325.168  325.105  325.041  324.978  324.916  324.857  324.801  324.751  324.707  324.671  324.645  324.630
  15   325.511  325.497  325.471  325.436  325.392  325.343  325.288  325.229  325.168  325.105  325.041  324.978  324.916  324.857  324.801  324.751  324.707  324.671  324.645  324.630
  16   325.511  325.497  325.471  325.436  325.392  325.343  325.288  325.229  325.168  325.105  325.041  324.978  324.916  324.857  324.801  324.751  324.707  324.671  324.645  324.630
  17   325.511  325.497  325.471  325.436  325.392  325.343  325.288  325.229  325.168  325.105  325.041  324.978  324.916  324.857  324.801  324.751  324.707  324.671  324.645  324.630
  18   325.511  325.497  325.471  325.436  325.392  325.343  325.288  325.229  325.168  325.105  325.041  324.978  324.916  324.857  324.801  324.751  324.707  324.671  324.645  324.630
  19   325.511  325.497  325.471  325.436  325.392  325.343  325.288  325.229  325.168  325.105  325.041  324.978  324.916  324.857  324.801  324.751  324.707  324.671  324.645  324.630
  20   325.511  325.497  325.471  325.436  325.392  325.343  325.288  325.229  325.168  325.105  325.041  324.978  324.916  324.857  324.802  324.751  324.707  324.671  324.645  324.630
  21   325.511  325.497  325.471  325.436  325.392  325.343  325.288  325.229  325.168  325.105  325.041  324.978  324.916  324.857  324.802  324.751  324.707  324.671  324.645  324.630

 HEAD WILL BE SAVED ON UNIT 1012 AT END OF TIME STEP    1, STRESS PERIOD    1


  VOLUME BUDGET FOR ENTIRE MODEL AT END OF TIME STEP    1, STRESS PERIOD   1
  ---------------------------------------------------------------------------------------------------

     CUMULATIVE VOLUME      L**3       RATES FOR THIS TIME STEP      L**3/T          PACKAGE NAME    
     ------------------                 ------------------------                     ----------------

           IN:                                      IN:
           ---                                      ---
                 CHD =       96951.9366                   CHD =       96951.9366     CHD-1                            

            TOTAL IN =       96951.9366              TOTAL IN =       96951.9366

          OUT:                                     OUT:
          ----                                     ----
                 CHD =       96948.0257                   CHD =       96948.0257     CHD-1                            

           TOTAL OUT =       96948.0257             TOTAL OUT =       96948.0257

            IN - OUT =           3.9109              IN - OUT =           3.9109

 PERCENT DISCREPANCY =           0.00     PERCENT DISCREPANCY =           0.00




         TIME SUMMARY AT END OF TIME STEP    1 IN STRESS PERIOD    1
                    SECONDS     MINUTES      HOURS       DAYS        YEARS
                    -----------------------------------------------------------
   TIME STEP LENGTH  86400.      1440.0      24.000      1.0000     2.73785E-03
 STRESS PERIOD TIME  86400.      1440.0      24.000      1.0000     2.73785E-03
         TOTAL TIME  86400.      1440.0      24.000      1.0000     2.73785E-03


end timestep

